lig_ejm_48
                    3D
 Schrodinger Suite 2021-1.
 42 44  0  0  1  0            999 V2000
   -4.7806   -2.7772  -16.4434 H   0  0  0  0  0  0
   -5.3676   -3.6465  -16.1852 C   0  0  0  0  0  0
   -4.7769   -4.9205  -16.1714 C   0  0  0  0  0  0
   -5.5376   -6.0528  -15.8227 C   0  0  0  0  0  0
   -6.9070   -5.9191  -15.4756 C   0  0  0  0  0  0
   -7.4992   -4.6314  -15.5128 C   0  0  0  0  0  0
   -6.7276   -3.5087  -15.8630 C   0  0  0  0  0  0
   -7.1848   -2.5317  -15.8892 H   0  0  0  0  0  0
   -9.1769   -4.3893  -15.1746 Cl  0  0  0  0  0  0
   -7.7212   -7.1103  -15.0571 C   0  0  0  0  0  0
   -8.1393   -7.1981  -13.9030 O   0  0  0  0  0  0
   -7.9218   -8.0129  -16.0346 N   0  0  0  0  0  0
   -7.4512   -7.8119  -16.9045 H   0  0  0  0  0  0
   -8.7481   -9.1686  -16.0525 C   0  0  0  0  0  0
   -9.5798   -9.5825  -14.9913 C   0  0  0  0  0  0
  -10.3775  -10.7221  -15.1791 C   0  0  0  0  0  0
  -10.3682  -11.4628  -16.3069 N   0  0  0  0  0  0
   -9.5623  -11.0966  -17.3301 C   0  0  0  0  0  0
   -8.7569   -9.9317  -17.2354 C   0  0  0  0  0  0
   -8.1457   -9.5990  -18.0592 H   0  0  0  0  0  0
   -9.5769  -11.9004  -18.5054 N   0  0  0  0  0  0
  -10.3792  -12.5129  -18.5798 H   0  0  0  0  0  0
   -8.6637  -12.0054  -19.4887 C   0  0  0  0  0  0
   -7.6404  -11.3231  -19.5605 O   0  0  0  0  0  0
   -8.9216  -13.0751  -20.5678 C   0  0  0  0  0  0
   -8.9524  -12.4999  -21.9980 C   0  0  0  0  0  0
   -8.2926  -13.5073  -22.9488 C   0  0  0  0  0  0
   -7.7436  -14.6222  -22.0660 C   0  0  0  0  0  0
   -7.6746  -13.9986  -20.6761 C   0  0  0  0  0  0
   -7.5769  -14.7512  -19.8963 H   0  0  0  0  0  0
   -6.7547  -13.4133  -20.6284 H   0  0  0  0  0  0
   -6.7769  -14.9877  -22.4122 H   0  0  0  0  0  0
   -8.4370  -15.4622  -22.0644 H   0  0  0  0  0  0
   -7.4882  -13.0244  -23.5058 H   0  0  0  0  0  0
   -9.0044  -13.8985  -23.6767 H   0  0  0  0  0  0
   -8.4190  -11.5446  -22.0668 H   0  0  0  0  0  0
   -9.9768  -12.3220  -22.3078 H   0  0  0  0  0  0
   -9.8199  -13.6608  -20.3658 H   0  0  0  0  0  0
  -11.0370  -11.0599  -14.3932 H   0  0  0  0  0  0
   -9.6473   -9.0490  -14.0569 H   0  0  0  0  0  0
   -4.7462   -7.5852  -15.8223 Cl  0  0  0  0  0  0
   -3.7312   -5.0277  -16.4208 H   0  0  0  0  0  0
  1  2  1  0  0  0
  2  7  1  0  0  0
  2  3  2  0  0  0
  3  4  1  0  0  0
  3 42  1  0  0  0
  4  5  2  0  0  0
  4 41  1  0  0  0
  5  6  1  0  0  0
  5 10  1  0  0  0
  6  7  2  0  0  0
  6  9  1  0  0  0
  7  8  1  0  0  0
 10 11  2  0  0  0
 10 12  1  0  0  0
 12 13  1  0  0  0
 12 14  1  0  0  0
 14 19  1  0  0  0
 14 15  2  0  0  0
 15 16  1  0  0  0
 15 40  1  0  0  0
 16 17  2  0  0  0
 16 39  1  0  0  0
 17 18  1  0  0  0
 18 19  2  0  0  0
 18 21  1  0  0  0
 19 20  1  0  0  0
 21 22  1  0  0  0
 21 23  1  0  0  0
 23 24  2  0  0  0
 23 25  1  0  0  0
 25 29  1  0  0  0
 25 26  1  0  0  0
 25 38  1  0  0  0
 26 27  1  0  0  0
 26 36  1  0  0  0
 26 37  1  0  0  0
 27 28  1  0  0  0
 27 34  1  0  0  0
 27 35  1  0  0  0
 28 29  1  0  0  0
 28 32  1  0  0  0
 28 33  1  0  0  0
 29 30  1  0  0  0
 29 31  1  0  0  0
M  END
> <s_m_source_file>
ligprep_tyk2.smi

> <i_m_source_file_index>
8

> <i_lp_mmshare_version>
53161

> <i_f3d_flags>
0

> <s_epik_input>
Q2xjMVtjSF1bY0hdW2NIXWMoQ2wpYzFDKD1PKVtOSF1jMltjSF1bY0hdbmMoW2NIXTIpW05IXUMoPU8pW0NIXTNbQ0gyXVtDSDJdW0NIMl1bQ0gyXTM=

> <s_epik_cmdline>
J2VwaWtfcHl0aG9uJywgJy1waHQnLCAnMC4wJywgJy1waCcsICc3LjQnLCAnLXRuJywgJzgnLCAnLW1hJywgJzUwMCcsICctaW1hZScsICc8aW5maWxlLm1hZT4nLCAnLW9tYWUnLCAnPG91dGZpbGUubWFlPic=

> <r_lp_tautomer_probability>
1

> <r_epik_Ionization_Penalty>
0.0034

> <r_epik_Ionization_Penalty_Charging>
0

> <r_epik_Ionization_Penalty_Neutral>
0.0034

> <r_epik_State_Penalty>
-0

> <r_epik_Charging_Adjusted_Penalty>
0

> <i_epik_Tot_Q>
0

> <i_epik_Tot_abs_Q>
0

> <s_lp_Force_Field>
S-OPLS

> <r_lp_Energy>
40.067

> <b_lp_Chiralities_Consistent>
1

> <s_lp_Variant>
lig_ejm_48-1

> <s_i_glide_gridfile>
glide-grid_4GIH-TYK2

> <i_i_glide_lignum>
8

> <i_i_glide_rotatable_bonds>
6

> <r_i_docking_score>
-9.1389

> <r_i_glide_ligand_efficiency>
-0.365556

> <r_i_glide_ligand_efficiency_sa>
-1.06889

> <r_i_glide_ligand_efficiency_ln>
-2.16619

> <r_i_glide_gscore>
-9.1389

> <r_i_glide_lipo>
-3.34832

> <r_i_glide_hbond>
-0.5963

> <r_i_glide_metal>
-0

> <r_i_glide_rewards>
-2.07588

> <r_i_glide_evdw>
-49.1744

> <r_i_glide_ecoul>
-8.19006

> <r_i_glide_erotb>
0.568824

> <r_i_glide_esite>
0

> <r_i_glide_emodel>
-79.5319

> <r_i_glide_energy>
-57.3644

> <r_i_glide_einternal>
0.0303319

> <i_i_glide_confnum>
1

> <i_i_glide_posenum>
3

> <r_i_glide_eff_state_penalty>
-0

> <r_i_glide_rmsd>
0.0894111

> <s_glide_core_constrain_type>
snapped_core_restrain
$$$$