lig_3032
                    3D
 Schrodinger Suite 2021-1.
 42 45  0  0  1  0            999 V2000
  -18.1755   -9.9389   33.2974 H   0  0  0  0  0  0
  -18.5714  -10.7919   33.8372 C   0  0  0  0  0  0
  -18.6362  -10.7881   35.2014 C   0  0  0  0  0  0
  -18.3092   -9.9581   35.8200 H   0  0  0  0  0  0
  -19.1455  -11.8997   35.8028 N   0  0  0  0  0  0
  -19.6099  -13.0083   35.0465 C   0  0  0  0  0  0
  -20.0444  -13.9659   35.8724 N   0  0  0  0  0  0
  -19.8863  -13.4769   37.1607 C   0  0  0  0  0  0
  -20.2932  -14.3177   38.3325 C   0  0  0  0  0  0
  -20.5992  -13.7115   39.1838 H   0  0  0  0  0  0
  -21.1303  -14.9712   38.0820 H   0  0  0  0  0  0
  -19.4712  -14.9534   38.6627 H   0  0  0  0  0  0
  -19.3252  -12.2244   37.1441 C   0  0  0  0  0  0
  -18.9418  -11.3231   38.2318 C   0  0  0  0  0  0
  -17.6549  -10.7409   38.2954 C   0  0  0  0  0  0
  -16.9195  -10.9406   37.5322 H   0  0  0  0  0  0
  -17.2603   -9.8935   39.2665 N   0  0  0  0  0  0
  -18.1343   -9.6065   40.2584 C   0  0  0  0  0  0
  -17.6390   -8.6422   41.3283 C   0  0  0  0  0  0
  -17.4694   -7.4291   40.7947 F   0  0  0  0  0  0
  -18.4995   -8.5457   42.3445 F   0  0  0  0  0  0
  -16.4658   -9.0591   41.8154 F   0  0  0  0  0  0
  -19.4424  -10.1370   40.2943 C   0  0  0  0  0  0
  -20.1250   -9.8873   41.0938 H   0  0  0  0  0  0
  -19.8472  -11.0058   39.2658 C   0  0  0  0  0  0
  -20.8492  -11.4124   39.2681 H   0  0  0  0  0  0
  -19.5086  -12.8949   33.6164 C   0  0  0  0  0  0
  -19.8932  -13.9492   32.7530 N   0  0  0  0  0  0
  -19.3979  -13.9834   31.3773 C   0  0  0  0  0  0
  -20.0166  -13.3308   30.7579 H   0  0  0  0  0  0
  -18.3757  -13.6084   31.3222 H   0  0  0  0  0  0
  -19.4264  -15.4197   30.8281 C   0  0  0  0  0  0
  -18.7022  -16.0514   31.3464 H   0  0  0  0  0  0
  -19.1430  -15.4152   29.7739 H   0  0  0  0  0  0
  -20.7415  -15.9575   30.9625 O   0  0  0  0  0  0
  -21.1505  -16.0286   32.3247 C   0  0  0  0  0  0
  -20.4808  -16.6886   32.8801 H   0  0  0  0  0  0
  -22.1402  -16.4815   32.3737 H   0  0  0  0  0  0
  -21.1783  -14.6192   32.9459 C   0  0  0  0  0  0
  -21.4664  -14.6916   33.9918 H   0  0  0  0  0  0
  -21.9485  -14.0213   32.4554 H   0  0  0  0  0  0
  -19.0166  -11.8227   33.0529 N   0  0  0  0  0  0
  1  2  1  0  0  0
  2 42  1  0  0  0
  2  3  2  0  0  0
  3  4  1  0  0  0
  3  5  1  0  0  0
  5 13  1  0  0  0
  5  6  1  0  0  0
  6  7  2  0  0  0
  6 27  1  0  0  0
  7  8  1  0  0  0
  8  9  1  0  0  0
  8 13  2  0  0  0
  9 10  1  0  0  0
  9 11  1  0  0  0
  9 12  1  0  0  0
 13 14  1  0  0  0
 14 25  1  0  0  0
 14 15  2  0  0  0
 15 16  1  0  0  0
 15 17  1  0  0  0
 17 18  2  0  0  0
 18 19  1  0  0  0
 18 23  1  0  0  0
 19 20  1  0  0  0
 19 21  1  0  0  0
 19 22  1  0  0  0
 23 24  1  0  0  0
 23 25  2  0  0  0
 25 26  1  0  0  0
 27 28  1  0  0  0
 27 42  2  0  0  0
 28 39  1  0  0  0
 28 29  1  0  0  0
 29 30  1  0  0  0
 29 31  1  0  0  0
 29 32  1  0  0  0
 32 33  1  0  0  0
 32 34  1  0  0  0
 32 35  1  0  0  0
 35 36  1  0  0  0
 36 37  1  0  0  0
 36 38  1  0  0  0
 36 39  1  0  0  0
 39 40  1  0  0  0
 39 41  1  0  0  0
M  END
> <s_m_source_file>
ligprep_pde10.smi

> <i_m_source_file_index>
13

> <i_lp_mmshare_version>
53161

> <i_f3d_flags>
0

> <s_epik_input>
W0NIMl0xW0NIMl1PW0NIMl1bQ0gyXU4xYyhuW2NIXVtjSF0yKWMobjIzKW5jKFtDSDNdKWMzLWM0W2NIXW5jKEMoRikoRilGKVtjSF1bY0hdNA==

> <s_epik_cmdline>
J2VwaWtfcHl0aG9uJywgJy1waHQnLCAnMC4wJywgJy1waCcsICc3LjQnLCAnLXRuJywgJzgnLCAnLW1hJywgJzUwMCcsICctaW1hZScsICc8aW5maWxlLm1hZT4nLCAnLW9tYWUnLCAnPG91dGZpbGUubWFlPic=

> <r_lp_tautomer_probability>
1

> <r_epik_Ionization_Penalty>
0.0003

> <r_epik_Ionization_Penalty_Charging>
0.0003

> <r_epik_Ionization_Penalty_Neutral>
0

> <r_epik_State_Penalty>
-0

> <r_epik_Charging_Adjusted_Penalty>
0.000307488

> <i_epik_Tot_Q>
0

> <i_epik_Tot_abs_Q>
0

> <s_lp_Force_Field>
S-OPLS

> <r_lp_Energy>
42.0008

> <b_lp_Chiralities_Consistent>
1

> <s_lp_Variant>
lig_3032-1

> <s_i_glide_gridfile>
glide-grid_4BBX-PDE10

> <i_i_glide_lignum>
14

> <i_i_glide_rotatable_bonds>
3

> <r_i_docking_score>
-7.25535

> <r_i_glide_ligand_efficiency>
-0.279052

> <r_i_glide_ligand_efficiency_sa>
-0.82669

> <r_i_glide_ligand_efficiency_ln>
-1.7039

> <r_i_glide_gscore>
-7.25535

> <r_i_glide_lipo>
-2.85805

> <r_i_glide_hbond>
-0.289727

> <r_i_glide_metal>
-0

> <r_i_glide_rewards>
-2.03539

> <r_i_glide_evdw>
-34.9967

> <r_i_glide_ecoul>
-3.92929

> <r_i_glide_erotb>
0.291065

> <r_i_glide_esite>
-0.0240238

> <r_i_glide_emodel>
-55.2165

> <r_i_glide_energy>
-38.926

> <r_i_glide_einternal>
0.260778

> <i_i_glide_confnum>
6

> <i_i_glide_posenum>
6

> <r_i_glide_eff_state_penalty>
-0

> <r_i_glide_rmsd>
0.0962754

> <s_glide_core_constrain_type>
snapped_core_restrain
$$$$