lig_p38a_2i
                    3D
 Schrodinger Suite 2021-1.
 48 51  0  0  1  0            999 V2000
   20.8090    7.8105   30.7820 H   0  0  0  0  0  0
   21.6770    8.4416   30.8909 C   0  0  0  0  0  0
   22.8835    7.8361   30.9295 N   0  0  0  0  0  0
   23.9356    8.6377   31.0790 C   0  0  0  0  0  0
   25.1587    8.0109   31.2003 N   0  0  0  0  0  0
   25.1634    6.9966   31.1834 H   0  0  0  0  0  0
   26.4467    8.6960   31.3183 C   0  0  0  0  0  0
   26.5268    9.3725   30.4662 H   0  0  0  0  0  0
   26.6117    9.5110   32.6248 C   0  0  0  0  0  0
   27.5128   10.1201   32.5435 H   0  0  0  0  0  0
   25.8029   10.2205   32.7837 H   0  0  0  0  0  0
   26.7511    8.6025   33.8555 C   0  0  0  0  0  0
   26.9099    9.2065   34.7492 H   0  0  0  0  0  0
   25.8437    8.0195   34.0215 H   0  0  0  0  0  0
   27.8696    7.7431   33.6816 O   0  0  0  0  0  0
   27.7281    6.8730   32.5655 C   0  0  0  0  0  0
   28.6021    6.2243   32.5350 H   0  0  0  0  0  0
   26.8664    6.2243   32.7168 H   0  0  0  0  0  0
   27.6011    7.6864   31.2584 C   0  0  0  0  0  0
   27.4760    7.0261   30.4021 H   0  0  0  0  0  0
   28.5282    8.2328   31.0942 H   0  0  0  0  0  0
   23.9069    9.9661   31.1725 N   0  0  0  0  0  0
   22.7131   10.5931   31.1954 C   0  0  0  0  0  0
   21.5393    9.8345   31.0468 C   0  0  0  0  0  0
   20.2618   10.5220   31.1079 C   0  0  0  0  0  0
   19.3677    9.9309   30.9651 H   0  0  0  0  0  0
   20.1804   11.8450   31.3371 C   0  0  0  0  0  0
   18.8173   12.5058   31.3947 C   0  0  0  0  0  0
   18.8964   13.3631   32.0616 H   0  0  0  0  0  0
   18.1009   11.8198   31.8496 H   0  0  0  0  0  0
   18.2745   12.9656   30.0501 C   0  0  0  0  0  0
   19.1110   13.0235   28.9140 C   0  0  0  0  0  0
   20.1246   12.6539   28.9243 H   0  0  0  0  0  0
   18.6527   13.6255   27.7349 C   0  0  0  0  0  0
   19.3164   13.6925   26.8886 H   0  0  0  0  0  0
   17.3876   14.2235   27.6767 C   0  0  0  0  0  0
   17.0667   14.7478   26.7889 H   0  0  0  0  0  0
   16.5522   14.1520   28.7978 C   0  0  0  0  0  0
   15.6159   14.6698   28.7688 H   0  0  0  0  0  0
   16.9565   13.4583   29.9515 C   0  0  0  0  0  0
   16.1034   13.3657   30.9962 F   0  0  0  0  0  0
   21.3956   12.6542   31.5135 C   0  0  0  0  0  0
   21.3238   13.8640   31.7351 O   0  0  0  0  0  0
   22.5949   12.0062   31.4100 N   0  0  0  0  0  0
   23.8507   12.7597   31.5605 C   0  0  0  0  0  0
   24.4140   12.3791   32.4129 H   0  0  0  0  0  0
   24.4709   12.6364   30.6716 H   0  0  0  0  0  0
   23.7321   13.8316   31.7173 H   0  0  0  0  0  0
  1  2  1  0  0  0
  2 24  1  0  0  0
  2  3  2  0  0  0
  3  4  1  0  0  0
  4  5  1  0  0  0
  4 22  2  0  0  0
  5  6  1  0  0  0
  5  7  1  0  0  0
  7 19  1  0  0  0
  7  8  1  0  0  0
  7  9  1  0  0  0
  9 10  1  0  0  0
  9 11  1  0  0  0
  9 12  1  0  0  0
 12 13  1  0  0  0
 12 14  1  0  0  0
 12 15  1  0  0  0
 15 16  1  0  0  0
 16 17  1  0  0  0
 16 18  1  0  0  0
 16 19  1  0  0  0
 19 20  1  0  0  0
 19 21  1  0  0  0
 22 23  1  0  0  0
 23 44  1  0  0  0
 23 24  2  0  0  0
 24 25  1  0  0  0
 25 26  1  0  0  0
 25 27  2  0  0  0
 27 28  1  0  0  0
 27 42  1  0  0  0
 28 29  1  0  0  0
 28 30  1  0  0  0
 28 31  1  0  0  0
 31 40  1  0  0  0
 31 32  2  0  0  0
 32 33  1  0  0  0
 32 34  1  0  0  0
 34 35  1  0  0  0
 34 36  2  0  0  0
 36 37  1  0  0  0
 36 38  1  0  0  0
 38 39  1  0  0  0
 38 40  2  0  0  0
 40 41  1  0  0  0
 42 43  2  0  0  0
 42 44  1  0  0  0
 44 45  1  0  0  0
 45 46  1  0  0  0
 45 47  1  0  0  0
 45 48  1  0  0  0
M  END
> <s_m_source_file>
ligprep_p38.smi

> <i_m_source_file_index>
11

> <i_lp_mmshare_version>
53161

> <i_f3d_flags>
0

> <s_epik_input>
W0NIMl0xW0NIMl1PW0NIMl1bQ0gyXVtDSF0xW05IXWMobjIpbltjSF1jKGMyMylbY0hdYyhjKD1PKW4zW0NIM10pW0NIMl1jNFtjSF1bY0hdW2NIXVtjSF1jNEY=

> <s_epik_cmdline>
J2VwaWtfcHl0aG9uJywgJy1waHQnLCAnMC4wJywgJy1waCcsICc3LjQnLCAnLXRuJywgJzgnLCAnLW1hJywgJzUwMCcsICctaW1hZScsICc8aW5maWxlLm1hZT4nLCAnLW9tYWUnLCAnPG91dGZpbGUubWFlPic=

> <r_lp_tautomer_probability>
1

> <r_epik_Ionization_Penalty>
0

> <r_epik_Ionization_Penalty_Charging>
0

> <r_epik_Ionization_Penalty_Neutral>
0

> <r_epik_State_Penalty>
-0

> <r_epik_Charging_Adjusted_Penalty>
1.24485e-06

> <i_epik_Tot_Q>
0

> <i_epik_Tot_abs_Q>
0

> <s_epik_Chemistry_Notes>
This compound has an imine and may undergo hydrolysis.

> <s_lp_Force_Field>
S-OPLS

> <r_lp_Energy>
35.3251

> <b_lp_Chiralities_Consistent>
1

> <s_lp_Variant>
lig_p38a_2i-1

> <s_i_glide_gridfile>
glide-grid_3FLY-P38

> <i_i_glide_lignum>
12

> <i_i_glide_rotatable_bonds>
4

> <r_i_docking_score>
-7.74831

> <r_i_glide_ligand_efficiency>
-0.286975

> <r_i_glide_ligand_efficiency_sa>
-0.860924

> <r_i_glide_ligand_efficiency_ln>
-1.80368

> <r_i_glide_gscore>
-7.74831

> <r_i_glide_lipo>
-1.94746

> <r_i_glide_hbond>
-0.978244

> <r_i_glide_metal>
-0

> <r_i_glide_rewards>
-2.14447

> <r_i_glide_evdw>
-33.1082

> <r_i_glide_ecoul>
-10.3801

> <r_i_glide_erotb>
0.56791

> <r_i_glide_esite>
-0.0336188

> <r_i_glide_emodel>
-54.8172

> <r_i_glide_energy>
-43.4883

> <r_i_glide_einternal>
7.50888

> <i_i_glide_confnum>
19

> <i_i_glide_posenum>
2

> <r_i_glide_eff_state_penalty>
-0

> <r_i_glide_rmsd>
0.101252

> <s_glide_core_constrain_type>
snapped_core_restrain
$$$$