lig_1056
                    3D
 Schrodinger Suite 2021-1.
 70 76  0  0  1  0            999 V2000
  -18.0285  -10.0090   33.3121 H   0  0  0  0  0  0
  -18.4862  -10.8276   33.8596 C   0  0  0  0  0  0
  -18.4887  -10.8398   35.2294 C   0  0  0  0  0  0
  -17.8460   -9.8133   36.0756 C   0  0  0  0  0  0
  -18.4265   -9.4358   37.2983 C   0  0  0  0  0  0
  -19.4088   -9.7774   37.5861 H   0  0  0  0  0  0
  -17.9482   -8.5202   38.1267 N   0  0  0  0  0  0
  -16.8473   -7.8404   37.7799 C   0  0  0  0  0  0
  -16.5340   -6.7559   38.6292 N   0  0  0  0  0  0
  -17.6452   -6.3474   39.5136 C   0  0  0  0  0  0
  -18.4973   -6.0500   38.9017 H   0  0  0  0  0  0
  -17.9759   -7.1821   40.1355 H   0  0  0  0  0  0
  -17.2973   -5.2102   40.4595 C   0  0  0  0  0  0
  -16.6854   -5.5798   41.2775 H   0  0  0  0  0  0
  -18.2073   -4.8287   40.9228 H   0  0  0  0  0  0
  -16.5910   -4.1343   39.7470 N   0  3  0  0  0  0
  -16.2764   -3.4359   40.4016 H   0  0  0  0  0  0
  -15.4518   -4.5818   38.9426 C   0  0  0  0  0  0
  -14.6475   -4.9215   39.5951 H   0  0  0  0  0  0
  -15.0857   -3.7344   38.3703 H   0  0  0  0  0  0
  -15.8389   -5.6684   37.9562 C   0  0  0  0  0  0
  -14.9176   -6.0111   37.4895 H   0  0  0  0  0  0
  -16.4756   -5.2585   37.1708 H   0  0  0  0  0  0
  -16.1312   -8.1642   36.5957 C   0  0  0  0  0  0
  -15.2247   -7.6585   36.3041 H   0  0  0  0  0  0
  -16.6370   -9.1682   35.7420 C   0  0  0  0  0  0
  -16.1117   -9.4168   34.8302 H   0  0  0  0  0  0
  -19.1024  -11.9126   35.8103 N   0  0  0  0  0  0
  -19.6723  -12.9752   35.0540 C   0  0  0  0  0  0
  -20.1711  -13.8994   35.8836 N   0  0  0  0  0  0
  -19.9749  -13.4200   37.1696 C   0  0  0  0  0  0
  -20.4845  -14.1501   38.3798 C   0  0  0  0  0  0
  -19.7705  -14.8964   38.7274 H   0  0  0  0  0  0
  -21.4162  -14.6678   38.1479 H   0  0  0  0  0  0
  -20.8009  -12.9438   39.7047 S   0  0  0  0  0  0
  -21.9515  -13.6815   40.8139 C   0  0  0  0  0  0
  -23.1108  -13.0078   40.9452 N   0  0  0  0  0  0
  -24.0313  -13.4703   41.8201 C   0  0  0  0  0  0
  -25.2515  -12.7829   41.9865 C   0  0  0  0  0  0
  -25.4442  -11.8956   41.4023 H   0  0  0  0  0  0
  -26.2192  -13.2316   42.9053 C   0  0  0  0  0  0
  -27.1481  -12.6917   43.0186 H   0  0  0  0  0  0
  -25.9760  -14.3830   43.6765 C   0  0  0  0  0  0
  -26.7161  -14.7257   44.3853 H   0  0  0  0  0  0
  -24.7693  -15.0891   43.5208 C   0  0  0  0  0  0
  -24.5895  -15.9746   44.1145 H   0  0  0  0  0  0
  -23.8023  -14.6373   42.5998 C   0  0  0  0  0  0
  -22.5873  -15.3361   42.4457 C   0  0  0  0  0  0
  -22.3797  -16.2235   43.0275 H   0  0  0  0  0  0
  -21.6384  -14.8494   41.5286 C   0  0  0  0  0  0
  -20.6856  -15.3363   41.3968 H   0  0  0  0  0  0
  -19.2852  -12.2443   37.1410 C   0  0  0  0  0  0
  -18.8912  -11.6930   37.9739 H   0  0  0  0  0  0
  -19.5590  -12.8660   33.6246 C   0  0  0  0  0  0
  -19.9603  -13.9016   32.7460 N   0  0  0  0  0  0
  -21.2063  -14.6358   32.9574 C   0  0  0  0  0  0
  -21.4852  -14.7208   34.0031 H   0  0  0  0  0  0
  -22.0103  -14.0785   32.4753 H   0  0  0  0  0  0
  -21.1179  -16.0432   32.3366 C   0  0  0  0  0  0
  -22.0907  -16.5320   32.3931 H   0  0  0  0  0  0
  -20.4201  -16.6739   32.8883 H   0  0  0  0  0  0
  -20.7244  -15.9579   30.9694 O   0  0  0  0  0  0
  -19.4400  -15.3603   30.8285 C   0  0  0  0  0  0
  -19.1552  -15.3614   29.7763 H   0  0  0  0  0  0
  -18.6887  -15.9509   31.3553 H   0  0  0  0  0  0
  -19.4818  -13.9186   31.3624 C   0  0  0  0  0  0
  -20.1378  -13.3047   30.7440 H   0  0  0  0  0  0
  -18.4773  -13.4987   31.2959 H   0  0  0  0  0  0
  -19.0197  -11.8144   33.0708 N   0  0  0  0  0  0
  -17.1976   -3.6478   39.0991 H   0  0  0  0  0  0
  1  2  1  0  0  0
  2 69  1  0  0  0
  2  3  2  0  0  0
  3  4  1  0  0  0
  3 28  1  0  0  0
  4 26  1  0  0  0
  4  5  2  0  0  0
  5  6  1  0  0  0
  5  7  1  0  0  0
  7  8  2  0  0  0
  8  9  1  0  0  0
  8 24  1  0  0  0
  9 21  1  0  0  0
  9 10  1  0  0  0
 10 11  1  0  0  0
 10 12  1  0  0  0
 10 13  1  0  0  0
 13 14  1  0  0  0
 13 15  1  0  0  0
 13 16  1  0  0  0
 16 17  1  0  0  0
 16 18  1  0  0  0
 16 70  1  0  0  0
 18 19  1  0  0  0
 18 20  1  0  0  0
 18 21  1  0  0  0
 21 22  1  0  0  0
 21 23  1  0  0  0
 24 25  1  0  0  0
 24 26  2  0  0  0
 26 27  1  0  0  0
 28 52  1  0  0  0
 28 29  1  0  0  0
 29 30  2  0  0  0
 29 54  1  0  0  0
 30 31  1  0  0  0
 31 32  1  0  0  0
 31 52  2  0  0  0
 32 33  1  0  0  0
 32 34  1  0  0  0
 32 35  1  0  0  0
 35 36  1  0  0  0
 36 50  1  0  0  0
 36 37  2  0  0  0
 37 38  1  0  0  0
 38 47  2  0  0  0
 38 39  1  0  0  0
 39 40  1  0  0  0
 39 41  2  0  0  0
 41 42  1  0  0  0
 41 43  1  0  0  0
 43 44  1  0  0  0
 43 45  2  0  0  0
 45 46  1  0  0  0
 45 47  1  0  0  0
 47 48  1  0  0  0
 48 49  1  0  0  0
 48 50  2  0  0  0
 50 51  1  0  0  0
 52 53  1  0  0  0
 54 55  1  0  0  0
 54 69  2  0  0  0
 55 66  1  0  0  0
 55 56  1  0  0  0
 56 57  1  0  0  0
 56 58  1  0  0  0
 56 59  1  0  0  0
 59 60  1  0  0  0
 59 61  1  0  0  0
 59 62  1  0  0  0
 62 63  1  0  0  0
 63 64  1  0  0  0
 63 65  1  0  0  0
 63 66  1  0  0  0
 66 67  1  0  0  0
 66 68  1  0  0  0
M  CHG  1  16   1
M  END
> <s_m_source_file>
ligprep_pde10.smi

> <i_m_source_file_index>
7

> <i_lp_mmshare_version>
53161

> <i_f3d_flags>
0

> <s_epik_input>
W0NIMl0xW0NIMl1bTkhdW0NIMl1bQ0gyXU4xYyhbY0hdW2NIXTIpbltjSF1jMi1jM1tjSF1uYyhONFtDSDJdW0NIMl1PW0NIMl1bQ0gyXTQpYyhuMzUpbmMoW2NIXTUpW0NIMl1TYyhuNilbY0hdW2NIXWMoYzY3KVtjSF1bY0hdW2NIXVtjSF03

> <s_epik_cmdline>
J2VwaWtfcHl0aG9uJywgJy1waHQnLCAnMC4wJywgJy1waCcsICc3LjQnLCAnLXRuJywgJzgnLCAnLW1hJywgJzUwMCcsICctaW1hZScsICc8aW5maWxlLm1hZT4nLCAnLW9tYWUnLCAnPG91dGZpbGUubWFlPic=

> <r_lp_tautomer_probability>
1

> <r_epik_Ionization_Penalty>
0.0249

> <r_epik_Ionization_Penalty_Charging>
0.0244

> <r_epik_Ionization_Penalty_Neutral>
0.0005

> <r_epik_State_Penalty>
-0

> <r_epik_Charging_Adjusted_Penalty>
0.024355

> <i_epik_Tot_Q>
1

> <i_epik_Tot_abs_Q>
1

> <s_lp_Force_Field>
S-OPLS

> <r_lp_Energy>
79.496

> <b_lp_Chiralities_Consistent>
1

> <s_lp_Variant>
lig_1056-1

> <s_i_glide_gridfile>
glide-grid_4BBX-PDE10

> <i_i_glide_lignum>
8

> <i_i_glide_rotatable_bonds>
6

> <r_i_docking_score>
-7.60894

> <r_i_glide_ligand_efficiency>
-0.195101

> <r_i_glide_ligand_efficiency_sa>
-0.661629

> <r_i_glide_ligand_efficiency_ln>
-1.63157

> <r_i_glide_gscore>
-7.60894

> <r_i_glide_lipo>
-4.70559

> <r_i_glide_hbond>
-0.371391

> <r_i_glide_metal>
-0

> <r_i_glide_rewards>
-0.363629

> <r_i_glide_evdw>
-50.4946

> <r_i_glide_ecoul>
0.203888

> <r_i_glide_erotb>
0.425819

> <r_i_glide_esite>
-0.1

> <r_i_glide_emodel>
-60.5435

> <r_i_glide_energy>
-50.2907

> <r_i_glide_einternal>
10.6207

> <i_i_glide_confnum>
130

> <i_i_glide_posenum>
185

> <r_i_glide_eff_state_penalty>
-0

> <r_i_glide_rmsd>
0.101133

> <s_glide_core_constrain_type>
snapped_core_restrain
$$$$