lig_p38a_2o
                    3D
 Schrodinger Suite 2021-1.
 55 58  0  0  1  0            999 V2000
   20.7354    7.8533   30.6366 H   0  0  0  0  0  0
   21.6109    8.4667   30.8061 C   0  0  0  0  0  0
   22.8031    7.8316   30.8482 N   0  0  0  0  0  0
   23.8697    8.5969   31.0541 C   0  0  0  0  0  0
   25.0862    7.9512   31.1364 N   0  0  0  0  0  0
   25.0982    6.9432   31.0601 H   0  0  0  0  0  0
   26.3526    8.6487   31.2715 C   0  0  0  0  0  0
   26.1881    9.5593   31.8456 H   0  0  0  0  0  0
   27.3697    7.8174   32.0566 C   0  0  0  0  0  0
   26.9787    7.5429   33.0382 H   0  0  0  0  0  0
   27.5866    6.8869   31.5291 H   0  0  0  0  0  0
   28.6554    8.6351   32.2131 C   0  0  0  0  0  0
   28.4860    9.5248   32.8178 H   0  0  0  0  0  0
   29.4217    8.0418   32.7091 H   0  0  0  0  0  0
   29.1343    9.0236   30.9354 O   0  0  0  0  0  0
   28.1938    9.7482   30.1458 C   0  0  0  0  0  0
   28.0599   10.7536   30.5202 H   0  0  0  0  0  0
   28.5381    9.8213   29.1367 H   0  0  0  0  0  0
   26.9019    9.0049   29.9240 C   0  0  0  0  0  0
   27.0726    8.0995   29.3362 H   0  0  0  0  0  0
   26.2030    9.6190   29.3576 H   0  0  0  0  0  0
   23.8711    9.9143   31.2199 N   0  0  0  0  0  0
   22.6972   10.5774   31.2171 C   0  0  0  0  0  0
   21.5030    9.8624   30.9993 C   0  0  0  0  0  0
   20.2418   10.5946   31.0138 C   0  0  0  0  0  0
   19.3412   10.0314   30.8189 H   0  0  0  0  0  0
   20.2169   11.9249   31.2755 C   0  0  0  0  0  0
   19.0742   12.6843   31.2873 O   0  0  0  0  0  0
   17.8263   12.1302   31.2205 C   0  0  0  0  0  0
   17.3103   11.3305   32.2654 C   0  0  0  0  0  0
   18.0752   11.0212   33.3359 F   0  0  0  0  0  0
   15.9905   10.8438   32.1834 C   0  0  0  0  0  0
   15.5911   10.2235   32.9751 H   0  0  0  0  0  0
   15.2043   11.1295   31.0470 C   0  0  0  0  0  0
   13.9596   10.6228   30.9355 F   0  0  0  0  0  0
   15.7106   11.9509   30.0284 C   0  0  0  0  0  0
   15.1007   12.1831   29.1672 H   0  0  0  0  0  0
   17.0129   12.4693   30.1264 C   0  0  0  0  0  0
   17.4049   13.1036   29.3415 H   0  0  0  0  0  0
   21.4540   12.6770   31.5092 C   0  0  0  0  0  0
   21.4110   13.8847   31.7342 O   0  0  0  0  0  0
   22.6274   11.9902   31.4547 N   0  0  0  0  0  0
   23.8909   12.7249   31.6842 C   0  0  0  0  0  0
   24.6857   12.2947   31.0821 H   0  0  0  0  0  0
   23.8285   13.7532   31.3210 H   0  0  0  0  0  0
   24.2812   12.7373   33.1781 C   0  0  0  0  0  0
   23.5916   13.3616   33.7447 H   0  0  0  0  0  0
   24.2750   11.7384   33.6137 H   0  0  0  0  0  0
   25.9680   13.4425   33.4366 S   0  0  0  0  0  0
   26.1526   14.5869   32.5356 O   0  0  0  0  0  0
   26.2055   13.6098   34.8809 O   0  0  0  0  0  0
   27.0361   12.0822   32.8452 C   0  0  0  0  0  0
   28.0765   12.4074   32.8771 H   0  0  0  0  0  0
   26.9013   11.2109   33.4829 H   0  0  0  0  0  0
   26.7625   11.8581   31.8126 H   0  0  0  0  0  0
  1  2  1  0  0  0
  2 24  1  0  0  0
  2  3  2  0  0  0
  3  4  1  0  0  0
  4  5  1  0  0  0
  4 22  2  0  0  0
  5  6  1  0  0  0
  5  7  1  0  0  0
  7 19  1  0  0  0
  7  8  1  0  0  0
  7  9  1  0  0  0
  9 10  1  0  0  0
  9 11  1  0  0  0
  9 12  1  0  0  0
 12 13  1  0  0  0
 12 14  1  0  0  0
 12 15  1  0  0  0
 15 16  1  0  0  0
 16 17  1  0  0  0
 16 18  1  0  0  0
 16 19  1  0  0  0
 19 20  1  0  0  0
 19 21  1  0  0  0
 22 23  1  0  0  0
 23 42  1  0  0  0
 23 24  2  0  0  0
 24 25  1  0  0  0
 25 26  1  0  0  0
 25 27  2  0  0  0
 27 28  1  0  0  0
 27 40  1  0  0  0
 28 29  1  0  0  0
 29 38  1  0  0  0
 29 30  2  0  0  0
 30 31  1  0  0  0
 30 32  1  0  0  0
 32 33  1  0  0  0
 32 34  2  0  0  0
 34 35  1  0  0  0
 34 36  1  0  0  0
 36 37  1  0  0  0
 36 38  2  0  0  0
 38 39  1  0  0  0
 40 41  2  0  0  0
 40 42  1  0  0  0
 42 43  1  0  0  0
 43 44  1  0  0  0
 43 45  1  0  0  0
 43 46  1  0  0  0
 46 47  1  0  0  0
 46 48  1  0  0  0
 46 49  1  0  0  0
 49 50  2  0  0  0
 49 51  2  0  0  0
 49 52  1  0  0  0
 52 53  1  0  0  0
 52 54  1  0  0  0
 52 55  1  0  0  0
M  END
> <s_m_source_file>
ligprep_p38.smi

> <i_m_source_file_index>
17

> <i_lp_mmshare_version>
53161

> <i_f3d_flags>
0

> <s_epik_input>
W0NIMl0xW0NIMl1PW0NIMl1bQ0gyXVtDSF0xW05IXWMobjIpbltjSF1jKGMyMylbY0hdYyhjKD1PKW4zW0NIMl1bQ0gyXVMoPU8pKD1PKVtDSDNdKU9jNGMoRilbY0hdYyhGKVtjSF1bY0hdNA==

> <s_epik_cmdline>
J2VwaWtfcHl0aG9uJywgJy1waHQnLCAnMC4wJywgJy1waCcsICc3LjQnLCAnLXRuJywgJzgnLCAnLW1hJywgJzUwMCcsICctaW1hZScsICc8aW5maWxlLm1hZT4nLCAnLW9tYWUnLCAnPG91dGZpbGUubWFlPic=

> <r_lp_tautomer_probability>
1

> <r_epik_Ionization_Penalty>
0

> <r_epik_Ionization_Penalty_Charging>
0

> <r_epik_Ionization_Penalty_Neutral>
0

> <r_epik_State_Penalty>
-0

> <r_epik_Charging_Adjusted_Penalty>
2.4645e-06

> <i_epik_Tot_Q>
0

> <i_epik_Tot_abs_Q>
0

> <s_epik_Chemistry_Notes>
This compound has an imine and may undergo hydrolysis.

> <s_lp_Force_Field>
S-OPLS

> <r_lp_Energy>
44.7544

> <b_lp_Chiralities_Consistent>
1

> <s_lp_Variant>
lig_p38a_2o-1

> <s_i_glide_gridfile>
glide-grid_3FLY-P38

> <i_i_glide_lignum>
18

> <i_i_glide_rotatable_bonds>
7

> <r_i_docking_score>
-10.371

> <r_i_glide_ligand_efficiency>
-0.314273

> <r_i_glide_ligand_efficiency_sa>
-1.00804

> <r_i_glide_ligand_efficiency_ln>
-2.30646

> <r_i_glide_gscore>
-10.371

> <r_i_glide_lipo>
-3.41529

> <r_i_glide_hbond>
-1.19063

> <r_i_glide_metal>
-0

> <r_i_glide_rewards>
-2.28841

> <r_i_glide_evdw>
-46.0389

> <r_i_glide_ecoul>
-11.0704

> <r_i_glide_erotb>
0.527042

> <r_i_glide_esite>
-0.0412176

> <r_i_glide_emodel>
-92.9971

> <r_i_glide_energy>
-57.1093

> <r_i_glide_einternal>
1.31445

> <i_i_glide_confnum>
1

> <i_i_glide_posenum>
8

> <r_i_glide_eff_state_penalty>
-0

> <r_i_glide_rmsd>
0.088785

> <s_glide_core_constrain_type>
snapped_core_restrain
$$$$