lig_4415
                    3D
 Schrodinger Suite 2021-1.
 49 52  0  0  1  0            999 V2000
  -18.0894   -9.9861   33.2337 H   0  0  0  0  0  0
  -18.5296  -10.8076   33.7907 C   0  0  0  0  0  0
  -18.6055  -10.7609   35.1541 C   0  0  0  0  0  0
  -18.2703   -9.9164   35.7443 H   0  0  0  0  0  0
  -19.1228  -11.8523   35.7875 N   0  0  0  0  0  0
  -19.5923  -12.9805   35.0559 C   0  0  0  0  0  0
  -20.0289  -13.9168   35.9059 N   0  0  0  0  0  0
  -19.8871  -13.3875   37.1797 C   0  0  0  0  0  0
  -20.3088  -14.1905   38.3678 C   0  0  0  0  0  0
  -19.6170  -14.0444   39.1950 H   0  0  0  0  0  0
  -21.3011  -13.8951   38.7072 H   0  0  0  0  0  0
  -20.3311  -15.2550   38.1309 H   0  0  0  0  0  0
  -19.3146  -12.1411   37.1386 C   0  0  0  0  0  0
  -18.9597  -11.2156   38.2169 C   0  0  0  0  0  0
  -17.7193  -10.5397   38.2439 C   0  0  0  0  0  0
  -16.9782  -10.7067   37.4771 H   0  0  0  0  0  0
  -17.3626   -9.6602   39.1985 N   0  0  0  0  0  0
  -18.2141   -9.4471   40.2237 C   0  0  0  0  0  0
  -17.7531   -8.4765   41.2984 C   0  0  0  0  0  0
  -18.6166   -8.1529   41.8804 H   0  0  0  0  0  0
  -17.3541   -7.5816   40.8220 H   0  0  0  0  0  0
  -16.7018   -9.0821   42.2406 C   0  0  0  0  0  0
  -17.0813  -10.0091   42.6745 H   0  0  0  0  0  0
  -16.5019   -8.3936   43.0628 H   0  0  0  0  0  0
  -15.4960   -9.3295   41.5312 O   0  0  0  0  0  0
  -14.5043   -9.9496   42.3303 C   0  0  0  0  0  0
  -13.6251  -10.1314   41.7189 H   0  0  0  0  0  0
  -14.8500  -10.9086   42.7160 H   0  0  0  0  0  0
  -14.2078   -9.3155   43.1673 H   0  0  0  0  0  0
  -19.4666  -10.0870   40.3160 C   0  0  0  0  0  0
  -20.1275   -9.9031   41.1516 H   0  0  0  0  0  0
  -19.8423  -10.9777   39.2927 C   0  0  0  0  0  0
  -20.8000  -11.4750   39.3409 H   0  0  0  0  0  0
  -19.4957  -12.8964   33.6200 C   0  0  0  0  0  0
  -19.9084  -13.9467   32.7692 N   0  0  0  0  0  0
  -21.1527  -14.6700   33.0213 C   0  0  0  0  0  0
  -21.3680  -14.7697   34.0814 H   0  0  0  0  0  0
  -21.9777  -14.0946   32.6019 H   0  0  0  0  0  0
  -21.1003  -16.0778   32.3912 C   0  0  0  0  0  0
  -22.0814  -16.5453   32.4527 H   0  0  0  0  0  0
  -20.4116  -16.7232   32.9342 H   0  0  0  0  0  0
  -20.7174  -16.0055   31.0202 O   0  0  0  0  0  0
  -19.4377  -15.4064   30.8535 C   0  0  0  0  0  0
  -19.1626  -15.4272   29.7983 H   0  0  0  0  0  0
  -18.6743  -15.9709   31.3886 H   0  0  0  0  0  0
  -19.4881  -13.9607   31.3662 C   0  0  0  0  0  0
  -20.1839  -13.3693   30.7670 H   0  0  0  0  0  0
  -18.5011  -13.5158   31.2456 H   0  0  0  0  0  0
  -18.9833  -11.8492   33.0333 N   0  0  0  0  0  0
  1  2  1  0  0  0
  2 49  1  0  0  0
  2  3  2  0  0  0
  3  4  1  0  0  0
  3  5  1  0  0  0
  5 13  1  0  0  0
  5  6  1  0  0  0
  6  7  2  0  0  0
  6 34  1  0  0  0
  7  8  1  0  0  0
  8  9  1  0  0  0
  8 13  2  0  0  0
  9 10  1  0  0  0
  9 11  1  0  0  0
  9 12  1  0  0  0
 13 14  1  0  0  0
 14 32  1  0  0  0
 14 15  2  0  0  0
 15 16  1  0  0  0
 15 17  1  0  0  0
 17 18  2  0  0  0
 18 19  1  0  0  0
 18 30  1  0  0  0
 19 20  1  0  0  0
 19 21  1  0  0  0
 19 22  1  0  0  0
 22 23  1  0  0  0
 22 24  1  0  0  0
 22 25  1  0  0  0
 25 26  1  0  0  0
 26 27  1  0  0  0
 26 28  1  0  0  0
 26 29  1  0  0  0
 30 31  1  0  0  0
 30 32  2  0  0  0
 32 33  1  0  0  0
 34 35  1  0  0  0
 34 49  2  0  0  0
 35 46  1  0  0  0
 35 36  1  0  0  0
 36 37  1  0  0  0
 36 38  1  0  0  0
 36 39  1  0  0  0
 39 40  1  0  0  0
 39 41  1  0  0  0
 39 42  1  0  0  0
 42 43  1  0  0  0
 43 44  1  0  0  0
 43 45  1  0  0  0
 43 46  1  0  0  0
 46 47  1  0  0  0
 46 48  1  0  0  0
M  END
> <s_m_source_file>
ligprep_pde10.smi

> <i_m_source_file_index>
20

> <i_lp_mmshare_version>
53161

> <i_f3d_flags>
0

> <s_epik_input>
W0NIMl0xW0NIMl1PW0NIMl1bQ0gyXU4xYyhuW2NIXVtjSF0yKWMobjIzKW5jKFtDSDNdKWMzLWM0W2NIXW5jKFtjSF1bY0hdNClbQ0gyXVtDSDJdT1tDSDNd

> <s_epik_cmdline>
J2VwaWtfcHl0aG9uJywgJy1waHQnLCAnMC4wJywgJy1waCcsICc3LjQnLCAnLXRuJywgJzgnLCAnLW1hJywgJzUwMCcsICctaW1hZScsICc8aW5maWxlLm1hZT4nLCAnLW9tYWUnLCAnPG91dGZpbGUubWFlPic=

> <r_lp_tautomer_probability>
1

> <r_epik_Ionization_Penalty>
0.0071

> <r_epik_Ionization_Penalty_Charging>
0.0003

> <r_epik_Ionization_Penalty_Neutral>
0.0068

> <r_epik_State_Penalty>
-0

> <r_epik_Charging_Adjusted_Penalty>
0.000307488

> <i_epik_Tot_Q>
0

> <i_epik_Tot_abs_Q>
0

> <s_lp_Force_Field>
S-OPLS

> <r_lp_Energy>
40.4589

> <b_lp_Chiralities_Consistent>
1

> <s_lp_Variant>
lig_4415-1

> <s_i_glide_gridfile>
glide-grid_4BBX-PDE10

> <i_i_glide_lignum>
21

> <i_i_glide_rotatable_bonds>
5

> <r_i_docking_score>
-7.52077

> <r_i_glide_ligand_efficiency>
-0.28926

> <r_i_glide_ligand_efficiency_sa>
-0.856933

> <r_i_glide_ligand_efficiency_ln>
-1.76623

> <r_i_glide_gscore>
-7.52077

> <r_i_glide_lipo>
-2.87542

> <r_i_glide_hbond>
-0.524292

> <r_i_glide_metal>
-0

> <r_i_glide_rewards>
-2.11847

> <r_i_glide_evdw>
-36.2893

> <r_i_glide_ecoul>
-5.33121

> <r_i_glide_erotb>
0.611559

> <r_i_glide_esite>
0

> <r_i_glide_emodel>
-60.0835

> <r_i_glide_energy>
-41.6205

> <r_i_glide_einternal>
0.149147

> <i_i_glide_confnum>
22

> <i_i_glide_posenum>
13

> <r_i_glide_eff_state_penalty>
-0

> <r_i_glide_rmsd>
0.057743

> <s_glide_core_constrain_type>
snapped_core_restrain
$$$$