lig_10
                    3D
 Schrodinger Suite 2021-1.
 41 43  0  0  1  0            999 V2000
   22.1809   39.2971    5.7966 H   0  0  0  0  0  0
   22.1702   40.1186    5.0972 C   0  0  0  0  0  0
   23.3133   40.3332    4.4117 N   0  0  0  0  0  0
   23.3203   41.3181    3.4847 C   0  0  0  0  0  0
   24.4838   41.4754    2.6971 N   0  0  0  0  0  0
   24.8081   42.7608    2.0890 C   0  0  0  0  0  0
   23.9702   43.4477    2.0133 H   0  0  0  0  0  0
   25.1176   42.5729    1.0614 H   0  0  0  0  0  0
   25.9340   43.4494    2.8733 C   0  0  0  0  0  0
   25.5583   43.6991    3.8687 H   0  0  0  0  0  0
   26.1714   44.3988    2.3958 H   0  0  0  0  0  0
   27.1932   42.5607    2.9906 C   0  0  0  0  0  0
   27.8982   42.4158    1.6274 C   0  0  0  0  0  0
   27.2788   41.9071    0.8897 H   0  0  0  0  0  0
   28.8233   41.8462    1.7196 H   0  0  0  0  0  0
   28.1591   43.3904    1.2153 H   0  0  0  0  0  0
   28.1432   43.2081    3.9063 N   0  3  0  0  0  0
   27.7449   43.2725    4.8348 H   0  0  0  0  0  0
   29.0009   42.6742    3.9427 H   0  0  0  0  0  0
   26.7852   41.1810    3.5636 C   0  0  0  0  0  0
   27.6369   40.5003    3.5682 H   0  0  0  0  0  0
   26.4852   41.2887    4.6076 H   0  0  0  0  0  0
   25.6128   40.5421    2.7927 C   0  0  0  0  0  0
   25.3412   39.5946    3.2538 H   0  0  0  0  0  0
   25.9203   40.2900    1.7766 H   0  0  0  0  0  0
   22.1624   42.1180    3.2982 C   0  0  0  0  0  0
   22.1028   42.8895    2.5480 H   0  0  0  0  0  0
   21.0145   41.9056    3.9791 N   0  0  0  0  0  0
   21.0104   40.8859    4.8669 C   0  0  0  0  0  0
   19.7222   40.5779    5.4959 C   0  0  0  0  0  0
   18.6998   40.0233    4.6964 C   0  0  0  0  0  0
   18.8792   39.8306    3.6465 H   0  0  0  0  0  0
   17.4465   39.7145    5.2458 C   0  0  0  0  0  0
   16.6896   39.2680    4.6194 H   0  0  0  0  0  0
   17.1943   39.9576    6.6072 C   0  0  0  0  0  0
   16.2376   39.6938    7.0349 H   0  0  0  0  0  0
   18.2078   40.4932    7.4206 C   0  0  0  0  0  0
   17.8961   40.7633    9.0945 Cl  0  0  0  0  0  0
   19.4651   40.8162    6.8698 C   0  0  0  0  0  0
   20.6537   41.5513    7.8864 Cl  0  0  0  0  0  0
   28.3341   44.1422    3.5623 H   0  0  0  0  0  0
  1  2  1  0  0  0
  2 29  1  0  0  0
  2  3  2  0  0  0
  3  4  1  0  0  0
  4  5  1  0  0  0
  4 26  2  0  0  0
  5 23  1  0  0  0
  5  6  1  0  0  0
  6  7  1  0  0  0
  6  8  1  0  0  0
  6  9  1  0  0  0
  9 10  1  0  0  0
  9 11  1  0  0  0
  9 12  1  0  0  0
 12 13  1  0  0  0
 12 17  1  0  0  0
 12 20  1  0  0  0
 13 14  1  0  0  0
 13 15  1  0  0  0
 13 16  1  0  0  0
 17 18  1  0  0  0
 17 19  1  0  0  0
 17 41  1  0  0  0
 20 21  1  0  0  0
 20 22  1  0  0  0
 20 23  1  0  0  0
 23 24  1  0  0  0
 23 25  1  0  0  0
 26 27  1  0  0  0
 26 28  1  0  0  0
 28 29  2  0  0  0
 29 30  1  0  0  0
 30 39  1  0  0  0
 30 31  2  0  0  0
 31 32  1  0  0  0
 31 33  1  0  0  0
 33 34  1  0  0  0
 33 35  2  0  0  0
 35 36  1  0  0  0
 35 37  1  0  0  0
 37 38  1  0  0  0
 37 39  2  0  0  0
 39 40  1  0  0  0
M  CHG  1  17   1
M  END
> <s_m_source_file>
ligprep_shp2.smi

> <i_m_source_file_index>
1

> <i_lp_mmshare_version>
53161

> <i_f3d_flags>
0

> <s_epik_input>
W0NIM11DMShbTkgyXSlbQ0gyXVtDSDJdTihbQ0gyXVtDSDJdMSljMm5bY0hdYyhuW2NIXTIpLWMzW2NIXVtjSF1bY0hdYyhDbCljM0Ns

> <s_epik_cmdline>
J2VwaWtfcHl0aG9uJywgJy1waHQnLCAnMC4wJywgJy1waCcsICc3LjQnLCAnLXRuJywgJzgnLCAnLW1hJywgJzUwMCcsICctaW1hZScsICc8aW5maWxlLm1hZT4nLCAnLW9tYWUnLCAnPG91dGZpbGUubWFlPic=

> <r_lp_tautomer_probability>
1

> <r_epik_Ionization_Penalty>
0.0131

> <r_epik_Ionization_Penalty_Charging>
0.013

> <r_epik_Ionization_Penalty_Neutral>
0.0001

> <r_epik_State_Penalty>
-0

> <r_epik_Charging_Adjusted_Penalty>
0.0130287

> <i_epik_Tot_Q>
1

> <i_epik_Tot_abs_Q>
1

> <s_lp_Force_Field>
S-OPLS

> <r_lp_Energy>
44.1529

> <b_lp_Chiralities_Consistent>
1

> <s_lp_Variant>
lig_10-1

> <s_i_glide_gridfile>
glide-grid_5EHR-SHP2

> <i_i_glide_lignum>
1

> <i_i_glide_rotatable_bonds>
2

> <r_i_docking_score>
-8.62415

> <r_i_glide_ligand_efficiency>
-0.392007

> <r_i_glide_ligand_efficiency_sa>
-1.09842

> <r_i_glide_ligand_efficiency_ln>
-2.10806

> <r_i_glide_gscore>
-8.62415

> <r_i_glide_lipo>
-3.33239

> <r_i_glide_hbond>
-0.1293

> <r_i_glide_metal>
-0

> <r_i_glide_rewards>
-1.38391

> <r_i_glide_evdw>
-47.9359

> <r_i_glide_ecoul>
-11.4153

> <r_i_glide_erotb>
0.330542

> <r_i_glide_esite>
0

> <r_i_glide_emodel>
-101.75

> <r_i_glide_energy>
-59.3512

> <r_i_glide_einternal>
1.73183e-08

> <i_i_glide_confnum>
3

> <i_i_glide_posenum>
1

> <r_i_glide_eff_state_penalty>
-0

> <r_i_glide_rmsd>
0.0897962

> <s_glide_core_constrain_type>
snapped_core_restrain
$$$$