lig_CHEMBL3265035
                    3D
 Schrodinger Suite 2021-1.
 52 56  0  0  1  0            999 V2000
   -7.8596   -2.4064   14.7620 H   0  0  0  0  0  0
   -7.0036   -2.0068   14.6741 O   0  0  0  0  0  0
   -6.2190   -2.4114   15.7807 C   0  0  0  0  0  0
   -6.6871   -2.0150   16.6834 H   0  0  0  0  0  0
   -6.2288   -3.5000   15.8732 H   0  0  0  0  0  0
   -4.7818   -1.8675   15.6698 C   0  0  0  0  0  0
   -4.7846   -0.8062   15.4227 H   0  0  0  0  0  0
   -4.3254   -1.9327   16.6615 H   0  0  0  0  0  0
   -3.9132   -2.6379   14.7412 N   0  3  2  0  0  0
   -2.4705   -2.2191   14.8406 C   0  0  0  0  0  0
   -1.9536   -1.1369   14.1029 C   0  0  0  0  0  0
   -2.5845   -0.5567   13.4489 H   0  0  0  0  0  0
   -0.5856   -0.8188   14.2006 C   0  0  0  0  0  0
   -0.2212    0.0146   13.6247 H   0  0  0  0  0  0
    0.2650   -1.5758   15.0432 C   0  0  0  0  0  0
    1.6372   -1.3498   15.2150 N   0  0  0  0  0  0
    2.0694   -1.9253   15.9316 H   0  0  0  0  0  0
    2.5429   -0.4432   14.6488 C   0  0  0  0  0  0
    2.2070    0.3336   13.6549 N   0  0  0  0  0  0
    3.1340    1.2305   13.1630 C   0  0  0  0  0  0
    2.6663    2.1244   12.0870 C   0  0  0  0  0  0
    3.5479    2.5489   11.0641 C   0  0  0  0  0  0
    4.5685    2.1968   11.0509 H   0  0  0  0  0  0
    3.1161    3.3966   10.0230 C   0  0  0  0  0  0
    3.8085    3.6967    9.2519 H   0  0  0  0  0  0
    1.7836    3.8594    9.9809 C   0  0  0  0  0  0
    0.9119    3.4448   11.0228 C   0  0  0  0  0  0
    1.3341    2.5967   12.0605 C   0  0  0  0  0  0
    0.6439    2.3132   12.8393 H   0  0  0  0  0  0
   -0.2891    4.0523   10.7130 N   0  0  0  0  0  0
   -1.1389    3.9941   11.2570 H   0  0  0  0  0  0
   -0.2521    4.7904    9.5753 N   0  0  0  0  0  0
    0.9798    4.6903    9.1343 C   0  0  0  0  0  0
    1.2663    5.2089    8.2327 H   0  0  0  0  0  0
    4.4179    1.3195   13.6424 C   0  0  0  0  0  0
    5.1641    2.0276   13.2927 H   0  0  0  0  0  0
    4.7574    0.5136   14.6801 N   0  0  0  0  0  0
    3.8401   -0.4066   15.2336 C   0  0  0  0  0  0
    4.3878   -1.0508   16.2704 N   0  0  0  0  0  0
    5.6487   -0.4916   16.4177 C   0  0  0  0  0  0
    6.2964   -0.8062   17.2170 H   0  0  0  0  0  0
    5.9125    0.4132   15.4252 C   0  0  0  0  0  0
    6.7711    1.0243   15.1879 H   0  0  0  0  0  0
   -0.2853   -2.6399   15.7915 C   0  0  0  0  0  0
    0.3502   -3.2137   16.4524 H   0  0  0  0  0  0
   -1.6518   -2.9578   15.7035 C   0  0  0  0  0  0
   -2.0339   -3.7919   16.2770 H   0  0  0  0  0  0
   -4.3852   -2.7342   13.3360 C   0  0  0  0  0  0
   -3.6265   -3.2065   12.7122 H   0  0  0  0  0  0
   -5.2859   -3.3434   13.2631 H   0  0  0  0  0  0
   -4.5933   -1.7535   12.9131 H   0  0  0  0  0  0
   -3.9706   -3.5881   15.0806 H   0  0  0  0  0  0
  1  2  1  0  0  0
  2  3  1  0  0  0
  3  4  1  0  0  0
  3  5  1  0  0  0
  3  6  1  0  0  0
  6  7  1  0  0  0
  6  8  1  0  0  0
  6  9  1  0  0  0
  9 10  1  0  0  0
  9 48  1  0  0  0
  9 52  1  0  0  0
 10 46  1  0  0  0
 10 11  2  0  0  0
 11 12  1  0  0  0
 11 13  1  0  0  0
 13 14  1  0  0  0
 13 15  2  0  0  0
 15 16  1  0  0  0
 15 44  1  0  0  0
 16 17  1  0  0  0
 16 18  1  0  0  0
 18 38  1  0  0  0
 18 19  2  0  0  0
 19 20  1  0  0  0
 20 21  1  0  0  0
 20 35  2  0  0  0
 21 28  1  0  0  0
 21 22  2  0  0  0
 22 23  1  0  0  0
 22 24  1  0  0  0
 24 25  1  0  0  0
 24 26  2  0  0  0
 26 33  1  0  0  0
 26 27  1  0  0  0
 27 28  2  0  0  0
 27 30  1  0  0  0
 28 29  1  0  0  0
 30 31  1  0  0  0
 30 32  1  0  0  0
 32 33  2  0  0  0
 33 34  1  0  0  0
 35 36  1  0  0  0
 35 37  1  0  0  0
 37 42  1  0  0  0
 37 38  1  0  0  0
 38 39  2  0  0  0
 39 40  1  0  0  0
 40 41  1  0  0  0
 40 42  2  0  0  0
 42 43  1  0  0  0
 44 45  1  0  0  0
 44 46  2  0  0  0
 46 47  1  0  0  0
 48 49  1  0  0  0
 48 50  1  0  0  0
 48 51  1  0  0  0
M  CHG  1   9   1
M  END
> <s_m_source_file>
ligprep_syk.smi

> <i_m_source_file_index>
42

> <i_lp_mmshare_version>
53161

> <i_f3d_flags>
0

> <s_epik_input>
W09IXVtDSDJdW0NIMl1OKFtDSDNdKWMxW2NIXVtjSF1jKFtjSF1bY0hdMSlbTkhdYyhjKG4yMyluW2NIXVtjSF0zKW5jKFtjSF0yKS1jKFtjSF1bY0hdNClbY0hdYyhjNDUpW25IXW5bY0hdNQ==

> <s_epik_cmdline>
J2VwaWtfcHl0aG9uJywgJy1waHQnLCAnMC4wJywgJy1waCcsICc3LjQnLCAnLXRuJywgJzgnLCAnLW1hJywgJzUwMCcsICctaW1hZScsICc8aW5maWxlLm1hZT4nLCAnLW9tYWUnLCAnPG91dGZpbGUubWFlPic=

> <r_lp_tautomer_probability>
0.980392

> <r_epik_Ionization_Penalty>
0.3903

> <r_epik_Ionization_Penalty_Charging>
0.3903

> <r_epik_Ionization_Penalty_Neutral>
0

> <r_epik_State_Penalty>
0.3881

> <r_epik_Charging_Adjusted_Penalty>
0.778354

> <i_epik_Tot_Q>
1

> <i_epik_Tot_abs_Q>
1

> <s_lp_Force_Field>
S-OPLS

> <r_lp_Energy>
44.7094

> <b_lp_Chiralities_Consistent>
1

> <s_lp_Variant>
lig_CHEMBL3265035-2

> <s_i_glide_gridfile>
glide-grid_4PV0-SYK

> <i_i_glide_lignum>
44

> <i_i_glide_rotatable_bonds>
7

> <r_i_docking_score>
-7.37024

> <r_i_glide_ligand_efficiency>
-0.245675

> <r_i_glide_ligand_efficiency_sa>
-0.763369

> <r_i_glide_ligand_efficiency_ln>
-1.6746

> <r_i_glide_gscore>
-7.75834

> <r_i_glide_lipo>
-2.79237

> <r_i_glide_hbond>
-0.375054

> <r_i_glide_metal>
-0

> <r_i_glide_rewards>
-2.09939

> <r_i_glide_evdw>
-45.2307

> <r_i_glide_ecoul>
-6.17274

> <r_i_glide_erotb>
0.733493

> <r_i_glide_esite>
-0.0375764

> <r_i_glide_emodel>
-69.3161

> <r_i_glide_energy>
-51.4034

> <r_i_glide_einternal>
3.10082

> <i_i_glide_confnum>
47

> <i_i_glide_posenum>
31

> <r_i_glide_eff_state_penalty>
0.3881

> <r_i_glide_rmsd>
0.0911971

> <s_glide_core_constrain_type>
snapped_core_restrain
$$$$