lig_49582468
                    3D
 Schrodinger Suite 2021-1.
 57 61  0  0  1  0            999 V2000
    7.2648    0.2983  -36.7988 C   0  0  0  0  0  0
    8.3702    1.1532  -36.1574 C   0  0  0  0  0  0
    9.5908    1.1230  -36.8924 O   0  0  0  0  0  0
    9.5425    1.8181  -38.1358 C   0  0  0  0  0  0
   10.9000    1.9216  -38.8090 C   0  0  0  0  0  0
   11.0332    1.7489  -40.2015 C   0  0  0  0  0  0
   12.2859    1.9805  -40.8107 C   0  0  0  0  0  0
   13.3780    2.2835  -39.9715 C   0  0  0  0  0  0
   13.2689    2.4199  -38.6308 N   0  0  0  0  0  0
   12.0522    2.2594  -38.0712 C   0  0  0  0  0  0
   12.4649    1.8142  -42.2530 C   0  0  0  0  0  0
   13.4183    1.0174  -42.7530 N   0  0  0  0  0  0
   13.2256    0.8812  -44.1335 N   0  0  0  0  0  0
   12.1779    1.6469  -44.4258 C   0  0  0  0  0  0
   11.7562    2.2400  -43.3117 N   0  0  0  0  0  0
   10.7036    3.1632  -43.3245 C   0  0  0  0  0  0
   10.2735    3.9899  -42.2514 C   0  0  0  0  0  0
    9.1997    4.8913  -42.3590 C   0  0  0  0  0  0
    8.5271    5.0186  -43.5812 C   0  0  0  0  0  0
    8.9331    4.2530  -44.6771 C   0  0  0  0  0  0
   10.0088    3.3530  -44.5673 C   0  0  0  0  0  0
   10.4074    2.6847  -45.6814 N   0  0  0  0  0  0
   11.4922    1.8836  -45.6343 C   0  0  0  0  0  0
   11.9216    1.2294  -46.9316 C   0  0  0  0  0  0
    8.7444    5.6734  -41.1379 C   0  0  0  0  0  0
    8.3248    7.0421  -41.4187 N   0  0  0  0  0  0
    9.4431    7.8970  -41.8150 C   0  0  0  0  0  0
    8.9872    9.3408  -42.0947 C   0  0  0  0  0  0
    8.3167    9.8662  -40.9506 O   0  0  0  0  0  0
    7.1919    9.0819  -40.5631 C   0  0  0  0  0  0
    7.6435    7.6392  -40.2732 C   0  0  0  0  0  0
    6.3838    0.2607  -36.1599 H   0  0  0  0  0  0
    7.5923   -0.7287  -36.9597 H   0  0  0  0  0  0
    6.9393    0.7003  -37.7579 H   0  0  0  0  0  0
    8.0335    2.1832  -36.0301 H   0  0  0  0  0  0
    8.5767    0.7710  -35.1567 H   0  0  0  0  0  0
    8.8457    1.3249  -38.8145 H   0  0  0  0  0  0
    9.1717    2.8339  -37.9812 H   0  0  0  0  0  0
   10.1747    1.4799  -40.8020 H   0  0  0  0  0  0
   14.3657    2.4309  -40.3848 H   0  0  0  0  0  0
   11.9972    2.4103  -37.0039 H   0  0  0  0  0  0
   10.7930    3.9771  -41.3104 H   0  0  0  0  0  0
    7.6947    5.6999  -43.6817 H   0  0  0  0  0  0
    8.4251    4.3692  -45.6251 H   0  0  0  0  0  0
   12.9258    1.5530  -47.2014 H   0  0  0  0  0  0
   11.9293    0.1445  -46.8251 H   0  0  0  0  0  0
   11.2505    1.4821  -47.7515 H   0  0  0  0  0  0
    7.9061    5.1190  -40.7145 H   0  0  0  0  0  0
    9.5330    5.6711  -40.3819 H   0  0  0  0  0  0
   10.1997    7.9076  -41.0269 H   0  0  0  0  0  0
    9.9276    7.4963  -42.7061 H   0  0  0  0  0  0
    8.3263    9.3765  -42.9614 H   0  0  0  0  0  0
    9.8467    9.9709  -42.3246 H   0  0  0  0  0  0
    6.4410    9.0992  -41.3531 H   0  0  0  0  0  0
    6.7301    9.5240  -39.6798 H   0  0  0  0  0  0
    6.7717    7.0382  -40.0048 H   0  0  0  0  0  0
    8.3031    7.6394  -39.4043 H   0  0  0  0  0  0
  1  2  1  0  0  0
  1 32  1  0  0  0
  1 33  1  0  0  0
  1 34  1  0  0  0
  2  3  1  0  0  0
  2 35  1  0  0  0
  2 36  1  0  0  0
  3  4  1  0  0  0
  4  5  1  0  0  0
  4 37  1  0  0  0
  4 38  1  0  0  0
  5 10  1  0  0  0
  5  6  2  0  0  0
  6  7  1  0  0  0
  6 39  1  0  0  0
  7  8  2  0  0  0
  7 11  1  0  0  0
  8  9  1  0  0  0
  8 40  1  0  0  0
  9 10  2  0  0  0
 10 41  1  0  0  0
 11 15  1  0  0  0
 11 12  2  0  0  0
 12 13  1  0  0  0
 13 14  2  0  0  0
 14 23  1  0  0  0
 14 15  1  0  0  0
 15 16  1  0  0  0
 16 21  1  0  0  0
 16 17  2  0  0  0
 17 18  1  0  0  0
 17 42  1  0  0  0
 18 19  2  0  0  0
 18 25  1  0  0  0
 19 20  1  0  0  0
 19 43  1  0  0  0
 20 21  2  0  0  0
 20 44  1  0  0  0
 21 22  1  0  0  0
 22 23  2  0  0  0
 23 24  1  0  0  0
 24 45  1  0  0  0
 24 46  1  0  0  0
 24 47  1  0  0  0
 25 26  1  0  0  0
 25 48  1  0  0  0
 25 49  1  0  0  0
 26 31  1  0  0  0
 26 27  1  0  0  0
 27 28  1  0  0  0
 27 50  1  0  0  0
 27 51  1  0  0  0
 28 29  1  0  0  0
 28 52  1  0  0  0
 28 53  1  0  0  0
 29 30  1  0  0  0
 30 31  1  0  0  0
 30 54  1  0  0  0
 30 55  1  0  0  0
 31 56  1  0  0  0
 31 57  1  0  0  0
M  END
> <s_m_source_file>
ligprep_pde2.smi

> <i_m_source_file_index>
16

> <i_lp_mmshare_version>
53161

> <i_f3d_flags>
0

> <s_epik_input>
W0NIM11bQ0gyXU9bQ0gyXWMxW2NIXWMoW2NIXW5bY0hdMSktYyhubjIpbihjMjMpYzRjKG5jM1tDSDNdKVtjSF1bY0hdYyhbY0hdNClbQ0gyXU41W0NIMl1bQ0gyXU9bQ0gyXVtDSDJdNQ==

> <s_epik_cmdline>
J2VwaWtfcHl0aG9uJywgJy1waHQnLCAnMC4wJywgJy1waCcsICc3LjQnLCAnLXRuJywgJzgnLCAnLW1hJywgJzUwMCcsICctaW1hZScsICc8aW5maWxlLm1hZT4nLCAnLW9tYWUnLCAnPG91dGZpbGUubWFlPic=

> <r_epik_Ionization_Penalty>
0.1302

> <r_epik_Ionization_Penalty_Charging>
0

> <r_epik_Ionization_Penalty_Neutral>
0.1302

> <r_epik_State_Penalty>
0.1195

> <r_epik_Charging_Adjusted_Penalty>
0.119465

> <i_epik_Tot_Q>
0

> <i_epik_Tot_abs_Q>
0

> <s_lp_Force_Field>
S-OPLS

> <r_lp_Energy>
50.3381

> <b_lp_Chiralities_Consistent>
1

> <s_lp_Variant>
lig_49582468-1

> <s_i_glide_gridfile>
glide-grid_6C7E-PDE2

> <i_i_glide_lignum>
16

> <i_i_glide_rotatable_bonds>
6

> <r_i_docking_score>
-7.23785

> <r_i_glide_ligand_efficiency>
-0.233479

> <r_i_glide_ligand_efficiency_sa>
-0.733446

> <r_i_glide_ligand_efficiency_ln>
-1.63236

> <r_i_glide_gscore>
-7.35735

> <r_i_glide_lipo>
-3.56527

> <r_i_glide_hbond>
-0.32

> <r_i_glide_metal>
-0

> <r_i_glide_rewards>
-1.19561

> <r_i_glide_evdw>
-42.0066

> <r_i_glide_ecoul>
-4.55327

> <r_i_glide_erotb>
0.564557

> <r_i_glide_esite>
-0.0576984

> <r_i_glide_emodel>
-65.13

> <r_i_glide_energy>
-46.5599

> <r_i_glide_einternal>
0.896735

> <i_i_glide_confnum>
70

> <i_i_glide_posenum>
228

> <r_i_glide_eff_state_penalty>
0.1195

> <r_i_glide_rmsd>
0.100903

> <s_glide_core_constrain_type>
snapped_core_restrain
$$$$