lig_5670
                    3D
 Schrodinger Suite 2021-1.
 69 75  0  0  1  0            999 V2000
  -17.9862  -10.0336   33.3030 H   0  0  0  0  0  0
  -18.4719  -10.8285   33.8596 C   0  0  0  0  0  0
  -18.4699  -10.8223   35.2332 C   0  0  0  0  0  0
  -17.7397   -9.8034   36.0368 C   0  0  0  0  0  0
  -17.1296  -10.1195   37.2753 C   0  0  0  0  0  0
  -17.0962  -11.1363   37.6358 H   0  0  0  0  0  0
  -16.5901   -9.2152   38.1137 N   0  0  0  0  0  0
  -16.5858   -7.9251   37.7417 C   0  0  0  0  0  0
  -16.0890   -7.0328   38.6985 N   0  0  0  0  0  0
  -14.8222   -6.3870   38.4061 C   0  0  0  0  0  0
  -14.2005   -6.4161   39.2984 H   0  0  0  0  0  0
  -14.2825   -6.9452   37.6393 H   0  0  0  0  0  0
  -15.0177   -4.9343   37.9543 C   0  0  0  0  0  0
  -15.4669   -4.8991   36.9623 H   0  0  0  0  0  0
  -14.0192   -4.5321   37.8444 H   0  0  0  0  0  0
  -15.8797   -4.1526   38.8983 N   0  3  0  0  0  0
  -16.0940   -3.2036   38.5011 H   0  0  0  0  0  0
  -17.1925   -4.8423   39.0356 C   0  0  0  0  0  0
  -17.6886   -4.8224   38.0677 H   0  0  0  0  0  0
  -17.8425   -4.2828   39.6982 H   0  0  0  0  0  0
  -17.0598   -6.3021   39.5038 C   0  0  0  0  0  0
  -18.0311   -6.7989   39.4707 H   0  0  0  0  0  0
  -16.7362   -6.3371   40.5439 H   0  0  0  0  0  0
  -17.0452   -7.5015   36.4766 C   0  0  0  0  0  0
  -17.0049   -6.4656   36.1789 H   0  0  0  0  0  0
  -17.5927   -8.4640   35.6061 C   0  0  0  0  0  0
  -17.9946   -8.1414   34.6562 H   0  0  0  0  0  0
  -19.1207  -11.8832   35.8214 N   0  0  0  0  0  0
  -19.6340  -12.9792   35.0587 C   0  0  0  0  0  0
  -20.1018  -13.9282   35.8756 N   0  0  0  0  0  0
  -19.9942  -13.4087   37.1510 C   0  0  0  0  0  0
  -20.5689  -14.0888   38.3131 C   0  0  0  0  0  0
  -20.6604  -15.1638   38.2455 H   0  0  0  0  0  0
  -20.9498  -13.4469   39.4330 C   0  0  0  0  0  0
  -20.8525  -12.3715   39.4670 H   0  0  0  0  0  0
  -21.4862  -14.0667   40.6505 C   0  0  0  0  0  0
  -21.4855  -15.3995   40.7470 N   0  0  0  0  0  0
  -21.8857  -15.9291   41.9170 C   0  0  0  0  0  0
  -21.8431  -17.0025   42.0035 H   0  0  0  0  0  0
  -22.3300  -15.1304   42.9839 C   0  0  0  0  0  0
  -22.7557  -15.6865   44.2074 C   0  0  0  0  0  0
  -22.7449  -16.7560   44.3600 H   0  0  0  0  0  0
  -23.1915  -14.8342   45.2387 C   0  0  0  0  0  0
  -23.5199  -15.2464   46.1830 H   0  0  0  0  0  0
  -23.2034  -13.4412   45.0406 C   0  0  0  0  0  0
  -23.5397  -12.7871   45.8352 H   0  0  0  0  0  0
  -22.7754  -12.8964   43.8134 C   0  0  0  0  0  0
  -22.7840  -11.8283   43.6677 H   0  0  0  0  0  0
  -22.3307  -13.7318   42.7694 C   0  0  0  0  0  0
  -21.9035  -13.2218   41.5957 N   0  0  0  0  0  0
  -19.4314  -12.1668   37.1468 C   0  0  0  0  0  0
  -19.2397  -11.4636   37.9416 H   0  0  0  0  0  0
  -19.5232  -12.8752   33.6302 C   0  0  0  0  0  0
  -19.9184  -13.9196   32.7583 N   0  0  0  0  0  0
  -19.4547  -13.9268   31.3705 C   0  0  0  0  0  0
  -20.0991  -13.2848   30.7674 H   0  0  0  0  0  0
  -18.4402  -13.5311   31.2983 H   0  0  0  0  0  0
  -19.4621  -15.3607   30.8160 C   0  0  0  0  0  0
  -18.7327  -15.9869   31.3332 H   0  0  0  0  0  0
  -19.1805  -15.3594   29.7616 H   0  0  0  0  0  0
  -20.7685  -15.9124   30.9491 O   0  0  0  0  0  0
  -21.1634  -16.0094   32.3156 C   0  0  0  0  0  0
  -20.4884  -16.6753   32.8540 H   0  0  0  0  0  0
  -22.1534  -16.4628   32.3655 H   0  0  0  0  0  0
  -21.1881  -14.6122   32.9627 C   0  0  0  0  0  0
  -21.4585  -14.7097   34.0104 H   0  0  0  0  0  0
  -21.9734  -14.0141   32.5000 H   0  0  0  0  0  0
  -19.0080  -11.8158   33.0742 N   0  0  0  0  0  0
  -15.4386   -4.0632   39.7979 H   0  0  0  0  0  0
  1  2  1  0  0  0
  2 68  1  0  0  0
  2  3  2  0  0  0
  3  4  1  0  0  0
  3 28  1  0  0  0
  4 26  1  0  0  0
  4  5  2  0  0  0
  5  6  1  0  0  0
  5  7  1  0  0  0
  7  8  2  0  0  0
  8  9  1  0  0  0
  8 24  1  0  0  0
  9 21  1  0  0  0
  9 10  1  0  0  0
 10 11  1  0  0  0
 10 12  1  0  0  0
 10 13  1  0  0  0
 13 14  1  0  0  0
 13 15  1  0  0  0
 13 16  1  0  0  0
 16 17  1  0  0  0
 16 18  1  0  0  0
 16 69  1  0  0  0
 18 19  1  0  0  0
 18 20  1  0  0  0
 18 21  1  0  0  0
 21 22  1  0  0  0
 21 23  1  0  0  0
 24 25  1  0  0  0
 24 26  2  0  0  0
 26 27  1  0  0  0
 28 51  1  0  0  0
 28 29  1  0  0  0
 29 30  2  0  0  0
 29 53  1  0  0  0
 30 31  1  0  0  0
 31 32  1  0  0  0
 31 51  2  0  0  0
 32 33  1  0  0  0
 32 34  2  0  0  0
 34 35  1  0  0  0
 34 36  1  0  0  0
 36 50  1  0  0  0
 36 37  2  0  0  0
 37 38  1  0  0  0
 38 39  1  0  0  0
 38 40  2  0  0  0
 40 49  1  0  0  0
 40 41  1  0  0  0
 41 42  1  0  0  0
 41 43  2  0  0  0
 43 44  1  0  0  0
 43 45  1  0  0  0
 45 46  1  0  0  0
 45 47  2  0  0  0
 47 48  1  0  0  0
 47 49  1  0  0  0
 49 50  2  0  0  0
 51 52  1  0  0  0
 53 54  1  0  0  0
 53 68  2  0  0  0
 54 65  1  0  0  0
 54 55  1  0  0  0
 55 56  1  0  0  0
 55 57  1  0  0  0
 55 58  1  0  0  0
 58 59  1  0  0  0
 58 60  1  0  0  0
 58 61  1  0  0  0
 61 62  1  0  0  0
 62 63  1  0  0  0
 62 64  1  0  0  0
 62 65  1  0  0  0
 65 66  1  0  0  0
 65 67  1  0  0  0
M  CHG  1  16   1
M  END
> <s_m_source_file>
ligprep_pde10.smi

> <i_m_source_file_index>
24

> <i_lp_mmshare_version>
53161

> <i_f3d_flags>
0

> <s_epik_input>
W0NIMl0xW0NIMl1bTkhdW0NIMl1bQ0gyXU4xYyhbY0hdW2NIXTIpbltjSF1jMi1jM1tjSF1uYyhONFtDSDJdW0NIMl1PW0NIMl1bQ0gyXTQpYyhuMzUpbmMoW2NIXTUpL1tDSF09W0NIXS9jKG5bY0hdNiluYyhjNjcpW2NIXVtjSF1bY0hdW2NIXTc=

> <s_epik_cmdline>
J2VwaWtfcHl0aG9uJywgJy1waHQnLCAnMC4wJywgJy1waCcsICc3LjQnLCAnLXRuJywgJzgnLCAnLW1hJywgJzUwMCcsICctaW1hZScsICc8aW5maWxlLm1hZT4nLCAnLW9tYWUnLCAnPG91dGZpbGUubWFlPic=

> <r_lp_tautomer_probability>
1

> <r_epik_Ionization_Penalty>
0.0248

> <r_epik_Ionization_Penalty_Charging>
0.0244

> <r_epik_Ionization_Penalty_Neutral>
0.0004

> <r_epik_State_Penalty>
-0

> <r_epik_Charging_Adjusted_Penalty>
0.024352

> <i_epik_Tot_Q>
1

> <i_epik_Tot_abs_Q>
1

> <s_epik_Chemistry_Notes>
This compound contains an electron-poor aromatic ring that is susceptible to covalent hydrolysis at low pH, typically resulting in measured values for nitrogen ring protonation that are around two units higher than predicted values.

> <s_lp_Force_Field>
S-OPLS

> <r_lp_Energy>
85.5806

> <b_lp_Chiralities_Consistent>
1

> <s_lp_Variant>
lig_5670-1

> <s_i_glide_gridfile>
glide-grid_4BBX-PDE10

> <i_i_glide_lignum>
25

> <i_i_glide_rotatable_bonds>
5

> <r_i_docking_score>
-8.65597

> <r_i_glide_ligand_efficiency>
-0.221948

> <r_i_glide_ligand_efficiency_sa>
-0.752673

> <r_i_glide_ligand_efficiency_ln>
-1.85609

> <r_i_glide_gscore>
-8.65597

> <r_i_glide_lipo>
-3.77299

> <r_i_glide_hbond>
-0.344717

> <r_i_glide_metal>
-0

> <r_i_glide_rewards>
-1.54039

> <r_i_glide_evdw>
-48.2929

> <r_i_glide_ecoul>
-5.74916

> <r_i_glide_erotb>
0.379147

> <r_i_glide_esite>
-0.1

> <r_i_glide_emodel>
-48.7041

> <r_i_glide_energy>
-54.042

> <r_i_glide_einternal>
16.6418

> <i_i_glide_confnum>
217

> <i_i_glide_posenum>
105

> <r_i_glide_eff_state_penalty>
-0

> <r_i_glide_rmsd>
0.0959361

> <s_glide_core_constrain_type>
snapped_core_restrain
$$$$