lig_19
                    3D
 Schrodinger Suite 2021-1.
 45 48  0  0  1  0            999 V2000
   -1.8148   14.2227   -8.1128 H   0  0  0  0  0  0
   -1.3673   13.4913   -7.4517 C   0  0  0  0  0  0
   -0.1324   13.6856   -7.0010 N   0  0  0  0  0  0
    0.1254   12.6052   -6.2239 N   0  0  0  0  0  0
    1.4059   12.4840   -5.5581 C   0  0  0  0  0  0
    1.3033   11.8585   -4.6695 H   0  0  0  0  0  0
    2.1257   12.0163   -6.2330 H   0  0  0  0  0  0
    1.7726   13.4670   -5.2574 H   0  0  0  0  0  0
   -0.9409   11.7351   -6.1695 C   0  0  0  0  0  0
   -0.9106   10.8308   -5.5748 H   0  0  0  0  0  0
   -1.9123   12.2708   -6.9626 C   0  0  0  0  0  0
   -3.2374   11.6986   -7.2479 C   0  0  0  0  0  0
   -3.3494   10.4192   -7.8321 C   0  0  0  0  0  0
   -2.4555    9.8696   -8.0887 H   0  0  0  0  0  0
   -4.6116    9.8434   -8.0820 C   0  0  0  0  0  0
   -4.6731    8.8624   -8.5327 H   0  0  0  0  0  0
   -5.7878   10.5319   -7.7227 C   0  0  0  0  0  0
   -7.1507    9.8966   -7.9592 C   0  0  0  0  0  0
   -7.9249   10.5097   -7.4929 H   0  0  0  0  0  0
   -7.1684    8.9465   -7.4230 H   0  0  0  0  0  0
   -7.4753    9.6817   -9.4132 C   0  0  0  0  0  0
   -8.1289    8.6121   -9.8101 N   0  0  0  0  0  0
   -8.3092    8.7542  -11.1491 N   0  0  0  0  0  0
   -8.8137    8.0465  -11.6756 H   0  0  0  0  0  0
   -7.7703    9.9215  -11.6610 C   0  0  0  0  0  0
   -7.1766   10.5420  -10.5293 C   0  0  0  0  0  0
   -6.4868   11.7578  -10.7415 C   0  0  0  0  0  0
   -6.0251   12.2463   -9.8984 H   0  0  0  0  0  0
   -6.3869   12.3322  -12.0319 C   0  0  0  0  0  0
   -5.6223   13.6080  -12.2404 C   0  0  0  0  0  0
   -6.0188   14.4611  -13.0332 O   0  0  0  0  0  0
   -4.4786   13.7131  -11.5479 N   0  0  0  0  0  0
   -4.2053   12.9452  -10.9524 H   0  0  0  0  0  0
   -3.5933   14.8685  -11.6063 C   0  0  0  0  0  0
   -2.6686   14.6658  -11.0640 H   0  0  0  0  0  0
   -4.0708   15.7356  -11.1517 H   0  0  0  0  0  0
   -3.3311   15.1203  -12.6346 H   0  0  0  0  0  0
   -7.0382   11.7137  -13.1235 C   0  0  0  0  0  0
   -6.9992   12.1611  -14.1062 H   0  0  0  0  0  0
   -7.7334   10.5031  -12.9405 C   0  0  0  0  0  0
   -8.2267   10.0308  -13.7778 H   0  0  0  0  0  0
   -5.6852   11.8141   -7.1419 C   0  0  0  0  0  0
   -6.5737   12.3622   -6.8698 H   0  0  0  0  0  0
   -4.4188   12.3952   -6.9168 C   0  0  0  0  0  0
   -4.3596   13.3740   -6.4661 H   0  0  0  0  0  0
  1  2  1  0  0  0
  2 11  1  0  0  0
  2  3  2  0  0  0
  3  4  1  0  0  0
  4  5  1  0  0  0
  4  9  1  0  0  0
  5  6  1  0  0  0
  5  7  1  0  0  0
  5  8  1  0  0  0
  9 10  1  0  0  0
  9 11  2  0  0  0
 11 12  1  0  0  0
 12 44  1  0  0  0
 12 13  2  0  0  0
 13 14  1  0  0  0
 13 15  1  0  0  0
 15 16  1  0  0  0
 15 17  2  0  0  0
 17 18  1  0  0  0
 17 42  1  0  0  0
 18 19  1  0  0  0
 18 20  1  0  0  0
 18 21  1  0  0  0
 21 26  1  0  0  0
 21 22  2  0  0  0
 22 23  1  0  0  0
 23 24  1  0  0  0
 23 25  1  0  0  0
 25 40  1  0  0  0
 25 26  2  0  0  0
 26 27  1  0  0  0
 27 28  1  0  0  0
 27 29  2  0  0  0
 29 30  1  0  0  0
 29 38  1  0  0  0
 30 31  2  0  0  0
 30 32  1  0  0  0
 32 33  1  0  0  0
 32 34  1  0  0  0
 34 35  1  0  0  0
 34 36  1  0  0  0
 34 37  1  0  0  0
 38 39  1  0  0  0
 38 40  2  0  0  0
 40 41  1  0  0  0
 42 43  1  0  0  0
 42 44  2  0  0  0
 44 45  1  0  0  0
M  END
> <s_m_source_file>
ligprep_cdk8.smi

> <i_m_source_file_index>
7

> <i_lp_mmshare_version>
53161

> <i_f3d_flags>
0

> <s_epik_input>
W0NIM11uMW5bY0hdYyhbY0hdMSktYzJbY0hdW2NIXWMoW2NIXVtjSF0yKVtDSDJdYyhuW25IXTMpYyhjMzQpW2NIXWMoW2NIXVtjSF00KUMoPU8pW05IXVtDSDNd

> <s_epik_cmdline>
J2VwaWtfcHl0aG9uJywgJy1waHQnLCAnMC4wJywgJy1waCcsICc3LjQnLCAnLXRuJywgJzgnLCAnLW1hJywgJzUwMCcsICctaW1hZScsICc8aW5maWxlLm1hZT4nLCAnLW9tYWUnLCAnPG91dGZpbGUubWFlPic=

> <r_lp_tautomer_probability>
1

> <r_epik_Ionization_Penalty>
0.0001

> <r_epik_Ionization_Penalty_Charging>
0

> <r_epik_Ionization_Penalty_Neutral>
0.0001

> <r_epik_State_Penalty>
-0

> <r_epik_Charging_Adjusted_Penalty>
0

> <i_epik_Tot_Q>
0

> <i_epik_Tot_abs_Q>
0

> <s_lp_Force_Field>
S-OPLS

> <r_lp_Energy>
29.8922

> <b_lp_Chiralities_Consistent>
1

> <s_lp_Variant>
lig_19-1

> <s_i_glide_gridfile>
glide-grid_5HNB-CDK8

> <i_i_glide_lignum>
7

> <i_i_glide_rotatable_bonds>
5

> <r_i_docking_score>
-9.83449

> <r_i_glide_ligand_efficiency>
-0.37825

> <r_i_glide_ligand_efficiency_sa>
-1.12056

> <r_i_glide_ligand_efficiency_ln>
-2.3096

> <r_i_glide_gscore>
-9.83449

> <r_i_glide_lipo>
-4.02519

> <r_i_glide_hbond>
-0.550434

> <r_i_glide_metal>
-0

> <r_i_glide_rewards>
-2.66837

> <r_i_glide_evdw>
-46.3069

> <r_i_glide_ecoul>
-5.55033

> <r_i_glide_erotb>
0.5574

> <r_i_glide_esite>
0

> <r_i_glide_emodel>
-80.7576

> <r_i_glide_energy>
-51.8573

> <r_i_glide_einternal>
3.49633

> <i_i_glide_confnum>
7

> <i_i_glide_posenum>
5

> <r_i_glide_eff_state_penalty>
-0

> <r_i_glide_rmsd>
0.10555

> <s_glide_core_constrain_type>
snapped_core_restrain
$$$$