lig_6e
                    3D
 Schrodinger Suite 2021-1.
 52 54  0  0  1  0            999 V2000
   22.1130  -13.2519   25.0056 C   0  0  0  0  0  0
   20.9594  -12.6401   25.5273 C   0  0  0  0  0  0
   19.7087  -13.2653   25.3824 C   0  0  0  0  0  0
   19.5958  -14.4964   24.7041 C   0  0  0  0  0  0
   20.7614  -15.1167   24.2030 C   0  0  0  0  0  0
   22.0135  -14.4913   24.3493 C   0  0  0  0  0  0
   18.2322  -15.1516   24.5258 C   0  0  0  0  0  0
   17.6615  -15.1636   23.0830 C   0  0  2  0  0  0
   17.4194  -13.7396   22.5535 C   0  0  0  0  0  0
   16.4705  -13.1170   23.0322 O   0  0  0  0  0  0
   18.2275  -13.2093   21.5999 N   0  0  0  0  0  0
   19.4356  -13.8419   21.0620 C   0  0  0  0  0  0
   20.1420  -12.7877   20.2138 C   0  0  0  0  0  0
   19.0797  -11.7550   19.8836 C   0  0  0  0  0  0
   18.0187  -11.8798   20.9916 C   0  0  1  0  0  0
   16.6097  -11.7077   20.3829 C   0  0  0  0  0  0
   16.1290  -12.5976   19.6816 O   0  0  0  0  0  0
   15.9663  -10.5631   20.6508 N   0  0  0  0  0  0
   14.6213  -10.2292   20.1901 C   0  0  0  0  0  0
   13.5467  -10.5163   21.2220 C   0  0  0  0  0  0
   13.2438   -9.5423   22.1922 C   0  0  0  0  0  0
   12.2263   -9.7729   23.1353 C   0  0  0  0  0  0
   11.4951  -10.9752   23.1087 C   0  0  0  0  0  0
   11.8198  -11.9665   22.1656 C   0  0  0  0  0  0
   12.8348  -11.7372   21.2185 C   0  0  0  0  0  0
   13.1091  -12.6842   20.2926 F   0  0  0  0  0  0
   11.9069   -8.5898   24.3426 Cl  0  0  0  0  0  0
   16.3673  -15.8781   23.0512 N   0  3  0  0  0  0
   18.3362  -15.7202   22.4310 H   0  0  0  0  0  0
   18.2012  -11.1337   21.7663 H   0  0  0  0  0  0
   16.0458  -15.9065   22.0878 H   0  0  0  0  0  0
   16.4727  -16.8147   23.4126 H   0  0  0  0  0  0
   23.0752  -12.7770   25.1174 H   0  0  0  0  0  0
   21.0347  -11.6953   26.0444 H   0  0  0  0  0  0
   18.8328  -12.7953   25.8019 H   0  0  0  0  0  0
   20.6980  -16.0671   23.6953 H   0  0  0  0  0  0
   22.9030  -14.9637   23.9600 H   0  0  0  0  0  0
   18.3187  -16.1778   24.8847 H   0  0  0  0  0  0
   17.5192  -14.6661   25.1976 H   0  0  0  0  0  0
   20.1089  -14.2036   21.8333 H   0  0  0  0  0  0
   19.1447  -14.6916   20.4401 H   0  0  0  0  0  0
   20.9296  -12.3172   20.8060 H   0  0  0  0  0  0
   20.6169  -13.2084   19.3285 H   0  0  0  0  0  0
   19.4994  -10.7501   19.8454 H   0  0  0  0  0  0
   18.6670  -11.9683   18.8949 H   0  0  0  0  0  0
   16.4474   -9.8683   21.2123 H   0  0  0  0  0  0
   14.6008   -9.1626   19.9700 H   0  0  0  0  0  0
   14.3827  -10.7206   19.2432 H   0  0  0  0  0  0
   13.7962   -8.6143   22.2196 H   0  0  0  0  0  0
   10.7140  -11.1524   23.8353 H   0  0  0  0  0  0
   11.2772  -12.9009   22.1616 H   0  0  0  0  0  0
   15.6822  -15.3579   23.5913 H   0  0  0  0  0  0
  1  6  1  0  0  0
  1  2  2  0  0  0
  1 33  1  0  0  0
  2  3  1  0  0  0
  2 34  1  0  0  0
  3  4  2  0  0  0
  3 35  1  0  0  0
  4  5  1  0  0  0
  4  7  1  0  0  0
  5  6  2  0  0  0
  5 36  1  0  0  0
  6 37  1  0  0  0
  7  8  1  0  0  0
  7 38  1  0  0  0
  7 39  1  0  0  0
  8 29  1  0  0  0
  8  9  1  0  0  0
  8 28  1  0  0  0
  9 10  2  0  0  0
  9 11  1  0  0  0
 11 15  1  0  0  0
 11 12  1  0  0  0
 12 13  1  0  0  0
 12 40  1  0  0  0
 12 41  1  0  0  0
 13 14  1  0  0  0
 13 42  1  0  0  0
 13 43  1  0  0  0
 14 15  1  0  0  0
 14 44  1  0  0  0
 14 45  1  0  0  0
 15 30  1  0  0  0
 15 16  1  0  0  0
 16 17  2  0  0  0
 16 18  1  0  0  0
 18 19  1  0  0  0
 18 46  1  0  0  0
 19 20  1  0  0  0
 19 47  1  0  0  0
 19 48  1  0  0  0
 20 25  1  0  0  0
 20 21  2  0  0  0
 21 22  1  0  0  0
 21 49  1  0  0  0
 22 23  2  0  0  0
 22 27  1  0  0  0
 23 24  1  0  0  0
 23 50  1  0  0  0
 24 25  2  0  0  0
 24 51  1  0  0  0
 25 26  1  0  0  0
 28 31  1  0  0  0
 28 32  1  0  0  0
 28 52  1  0  0  0
M  CHG  1  28   1
M  END
> <s_m_source_file>
ligprep_thrombin.smi

> <i_m_source_file_index>
10

> <i_lp_mmshare_version>
53161

> <i_f3d_flags>
0

> <s_epik_input>
W2NIXTFbY0hdW2NIXVtjSF1bY0hdYzFbQ0gyXVtDQEBIXShbTkgyXSlDKD1PKU4yW0NIMl1bQ0gyXVtDSDJdW0NASF0yQyg9TylbTkhdW0NIMl1jM1tjSF1jKENsKVtjSF1bY0hdYzNG

> <s_epik_cmdline>
J2VwaWtfcHl0aG9uJywgJy1waHQnLCAnMC4wJywgJy1waCcsICc3LjQnLCAnLXRuJywgJzgnLCAnLW1hJywgJzUwMCcsICctaW1hZScsICc8aW5maWxlLm1hZT4nLCAnLW9tYWUnLCAnPG91dGZpbGUubWFlPic=

> <r_epik_Ionization_Penalty>
0.3822

> <r_epik_Ionization_Penalty_Charging>
0.3822

> <r_epik_Ionization_Penalty_Neutral>
0

> <r_epik_State_Penalty>
0.3803

> <r_epik_Charging_Adjusted_Penalty>
0.762511

> <i_epik_Tot_Q>
1

> <i_epik_Tot_abs_Q>
1

> <s_lp_Force_Field>
S-OPLS

> <r_lp_Energy>
39.2777

> <b_lp_Chiralities_Consistent>
1

> <s_lp_Variant>
lig_6e-1

> <s_i_glide_gridfile>
glide-grid_2ZFF-Thrombin

> <i_i_glide_lignum>
10

> <i_i_glide_rotatable_bonds>
8

> <r_i_docking_score>
-11.1072

> <r_i_glide_ligand_efficiency>
-0.396687

> <r_i_glide_ligand_efficiency_sa>
-1.20458

> <r_i_glide_ligand_efficiency_ln>
-2.56388

> <r_i_glide_gscore>
-11.4875

> <r_i_glide_lipo>
-4.8872

> <r_i_glide_hbond>
-0.864

> <r_i_glide_metal>
-0

> <r_i_glide_rewards>
-1.6749

> <r_i_glide_evdw>
-48.8327

> <r_i_glide_ecoul>
-16.9984

> <r_i_glide_erotb>
0.958807

> <r_i_glide_esite>
-0.0288507

> <r_i_glide_emodel>
-116.864

> <r_i_glide_energy>
-65.8311

> <r_i_glide_einternal>
-1.78848e-08

> <i_i_glide_confnum>
8

> <i_i_glide_posenum>
2

> <r_i_glide_eff_state_penalty>
0.3803

> <r_i_glide_rmsd>
0.0873043

> <s_glide_core_constrain_type>
snapped_core_restrain
$$$$