lig_CHEMBL3265037
                    3D
 Schrodinger Suite 2021-1.
 56 61  0  0  1  0            999 V2000
    1.2926    5.2238    8.2296 H   0  0  0  0  0  0
    1.0077    4.7091    9.1347 C   0  0  0  0  0  0
   -0.2209    4.8241    9.5845 N   0  0  0  0  0  0
   -0.2553    4.0887   10.7237 N   0  0  0  0  0  0
   -1.1003    4.0422   11.2714 H   0  0  0  0  0  0
    0.9437    3.4710   11.0237 C   0  0  0  0  0  0
    1.3673    2.6241   12.0621 C   0  0  0  0  0  0
    0.6750    2.3563   12.8475 H   0  0  0  0  0  0
    2.6943    2.1391   12.0834 C   0  0  0  0  0  0
    3.1575    1.2341   13.1548 C   0  0  0  0  0  0
    4.4379    1.3120   13.6398 C   0  0  0  0  0  0
    5.1891    2.0152   13.2894 H   0  0  0  0  0  0
    4.7611    0.5093   14.6809 N   0  0  0  0  0  0
    3.8342   -0.4064   15.2320 C   0  0  0  0  0  0
    4.3823   -1.0443   16.2685 N   0  0  0  0  0  0
    5.6527   -0.4987   16.4184 C   0  0  0  0  0  0
    6.2832   -0.8064   17.2321 H   0  0  0  0  0  0
    5.9183    0.4055   15.4293 C   0  0  0  0  0  0
    6.7795    1.0190   15.2111 H   0  0  0  0  0  0
    2.5428   -0.4491   14.6325 C   0  0  0  0  0  0
    1.6067   -1.3407   15.1957 N   0  0  0  0  0  0
    1.9998   -1.9150   15.9323 H   0  0  0  0  0  0
    0.2250   -1.5353   14.9957 C   0  0  0  0  0  0
   -0.3998   -2.5599   15.7359 C   0  0  0  0  0  0
    0.1823   -3.1677   16.4132 H   0  0  0  0  0  0
   -1.7798   -2.8064   15.6107 C   0  0  0  0  0  0
   -2.2216   -3.5938   16.2023 H   0  0  0  0  0  0
   -2.5698   -2.0313   14.7323 C   0  0  0  0  0  0
   -3.9548   -2.2470   14.6000 N   0  0  0  0  0  0
   -4.4457   -2.7167   13.3070 C   0  0  0  0  0  0
   -3.6803   -2.6337   12.5305 H   0  0  0  0  0  0
   -5.2796   -2.0879   12.9868 H   0  0  0  0  0  0
   -4.9142   -4.1802   13.4074 C   0  0  0  0  0  0
   -5.3722   -4.4920   12.4678 H   0  0  0  0  0  0
   -4.0681   -4.8486   13.5889 H   0  0  0  0  0  0
   -5.8702   -4.2970   14.4562 O   0  0  0  0  0  0
   -5.2894   -4.0083   15.7254 C   0  0  0  0  0  0
   -6.0277   -4.1804   16.5097 H   0  0  0  0  0  0
   -4.4621   -4.6964   15.9141 H   0  0  0  0  0  0
   -4.7922   -2.5468   15.7599 C   0  0  0  0  0  0
   -5.6535   -1.8732   15.7361 H   0  0  0  0  0  0
   -4.2668   -2.3432   16.6962 H   0  0  0  0  0  0
   -1.9589   -1.0064   13.9752 C   0  0  0  0  0  0
   -2.7753   -0.2596   13.1519 O   0  0  0  0  0  0
   -2.1757    0.6848   12.2713 C   0  0  0  0  0  0
   -2.9467    1.1014   11.6222 H   0  0  0  0  0  0
   -1.7217    1.5111   12.8165 H   0  0  0  0  0  0
   -1.4300    0.2116   11.6312 H   0  0  0  0  0  0
   -0.5703   -0.7668   14.1146 C   0  0  0  0  0  0
   -0.1310    0.0331   13.5514 H   0  0  0  0  0  0
    2.2274    0.3371   13.6403 N   0  0  0  0  0  0
    3.5753    2.5612   11.0538 C   0  0  0  0  0  0
    4.5942    2.2062   11.0390 H   0  0  0  0  0  0
    3.1453    3.4117   10.0141 C   0  0  0  0  0  0
    3.8377    3.7104    9.2419 H   0  0  0  0  0  0
    1.8110    3.8764    9.9773 C   0  0  0  0  0  0
  1  2  1  0  0  0
  2 56  1  0  0  0
  2  3  2  0  0  0
  3  4  1  0  0  0
  4  5  1  0  0  0
  4  6  1  0  0  0
  6 56  2  0  0  0
  6  7  1  0  0  0
  7  8  1  0  0  0
  7  9  2  0  0  0
  9 10  1  0  0  0
  9 52  1  0  0  0
 10 51  1  0  0  0
 10 11  2  0  0  0
 11 12  1  0  0  0
 11 13  1  0  0  0
 13 18  1  0  0  0
 13 14  1  0  0  0
 14 15  2  0  0  0
 14 20  1  0  0  0
 15 16  1  0  0  0
 16 17  1  0  0  0
 16 18  2  0  0  0
 18 19  1  0  0  0
 20 21  1  0  0  0
 20 51  2  0  0  0
 21 22  1  0  0  0
 21 23  1  0  0  0
 23 49  1  0  0  0
 23 24  2  0  0  0
 24 25  1  0  0  0
 24 26  1  0  0  0
 26 27  1  0  0  0
 26 28  2  0  0  0
 28 29  1  0  0  0
 28 43  1  0  0  0
 29 40  1  0  0  0
 29 30  1  0  0  0
 30 31  1  0  0  0
 30 32  1  0  0  0
 30 33  1  0  0  0
 33 34  1  0  0  0
 33 35  1  0  0  0
 33 36  1  0  0  0
 36 37  1  0  0  0
 37 38  1  0  0  0
 37 39  1  0  0  0
 37 40  1  0  0  0
 40 41  1  0  0  0
 40 42  1  0  0  0
 43 44  1  0  0  0
 43 49  2  0  0  0
 44 45  1  0  0  0
 45 46  1  0  0  0
 45 47  1  0  0  0
 45 48  1  0  0  0
 49 50  1  0  0  0
 52 53  1  0  0  0
 52 54  2  0  0  0
 54 55  1  0  0  0
 54 56  1  0  0  0
M  END
> <s_m_source_file>
ligprep_syk.smi

> <i_m_source_file_index>
44

> <i_lp_mmshare_version>
53161

> <i_f3d_flags>
0

> <s_epik_input>
W25IXTFuW2NIXWMoYzEyKVtjSF1bY0hdYyhbY0hdMiktYyhbY0hdMyluYyhjKG4zNCluW2NIXVtjSF00KVtOSF1jNVtjSF1bY0hdYyhjKFtjSF01KU9bQ0gzXSlONltDSDJdW0NIMl1PW0NIMl1bQ0gyXTY=

> <s_epik_cmdline>
J2VwaWtfcHl0aG9uJywgJy1waHQnLCAnMC4wJywgJy1waCcsICc3LjQnLCAnLXRuJywgJzgnLCAnLW1hJywgJzUwMCcsICctaW1hZScsICc8aW5maWxlLm1hZT4nLCAnLW9tYWUnLCAnPG91dGZpbGUubWFlPic=

> <r_lp_tautomer_probability>
1

> <r_epik_Ionization_Penalty>
0.0009

> <r_epik_Ionization_Penalty_Charging>
0.0009

> <r_epik_Ionization_Penalty_Neutral>
0

> <r_epik_State_Penalty>
-0

> <r_epik_Charging_Adjusted_Penalty>
0.000851558

> <i_epik_Tot_Q>
0

> <i_epik_Tot_abs_Q>
0

> <s_lp_Force_Field>
S-OPLS

> <r_lp_Energy>
53.667

> <b_lp_Chiralities_Consistent>
1

> <s_lp_Variant>
lig_CHEMBL3265037-1

> <s_i_glide_gridfile>
glide-grid_4PV0-SYK

> <i_i_glide_lignum>
46

> <i_i_glide_rotatable_bonds>
5

> <r_i_docking_score>
-7.96788

> <r_i_glide_ligand_efficiency>
-0.241451

> <r_i_glide_ligand_efficiency_sa>
-0.774462

> <r_i_glide_ligand_efficiency_ln>
-1.77202

> <r_i_glide_gscore>
-7.96788

> <r_i_glide_lipo>
-2.85302

> <r_i_glide_hbond>
-0.309024

> <r_i_glide_metal>
-0

> <r_i_glide_rewards>
-1.82008

> <r_i_glide_evdw>
-49.0791

> <r_i_glide_ecoul>
-6.62966

> <r_i_glide_erotb>
0.512429

> <r_i_glide_esite>
-0.0497817

> <r_i_glide_emodel>
-82.0422

> <r_i_glide_energy>
-55.7088

> <r_i_glide_einternal>
0.503728

> <i_i_glide_confnum>
7

> <i_i_glide_posenum>
2

> <r_i_glide_eff_state_penalty>
-0

> <r_i_glide_rmsd>
0.105053

> <s_glide_core_constrain_type>
snapped_core_restrain
$$$$