lig_56
                    3D
 Schrodinger Suite 2021-1.
 53 57  0  0  1  0            999 V2000
   96.7203   45.9127  267.0656 H   0  0  0  0  0  0
   96.0048   46.7078  267.2163 C   0  0  0  0  0  0
   94.7394   46.4812  266.8137 N   0  0  0  0  0  0
   93.8375   47.4802  266.9688 C   0  0  0  0  0  0
   94.2152   48.7219  267.5664 C   0  0  0  0  0  0
   95.4829   48.9085  268.0136 N   0  0  0  0  0  0
   96.3756   47.9195  267.8218 C   0  0  0  0  0  0
   97.3882   48.1001  268.1509 H   0  0  0  0  0  0
   93.2483   49.7488  267.6894 C   0  0  0  0  0  0
   93.5660   51.0426  268.3042 C   0  0  0  0  0  0
   94.5250   51.9136  267.7491 C   0  0  0  0  0  0
   95.0538   51.6147  266.8542 H   0  0  0  0  0  0
   94.7723   53.1789  268.3198 C   0  0  0  0  0  0
   95.7505   54.1115  267.6284 C   0  0  0  0  0  0
   95.7785   53.9197  266.5562 H   0  0  0  0  0  0
   95.4633   55.1533  267.7675 H   0  0  0  0  0  0
   96.7586   53.9702  268.0136 H   0  0  0  0  0  0
   94.0681   53.5920  269.4797 C   0  0  0  0  0  0
   94.0249   54.7739  270.2831 C   0  0  0  0  0  0
   94.5950   55.6750  270.1179 H   0  0  0  0  0  0
   93.1636   54.5322  271.3149 C   0  0  0  0  0  0
   92.8871   55.1711  272.1359 H   0  0  0  0  0  0
   92.6180   53.2690  271.1875 N   0  0  0  0  0  0
   91.6562   52.6763  272.0955 C   0  0  0  0  0  0
   90.6782   52.6257  271.6165 H   0  0  0  0  0  0
   91.9740   51.6689  272.3676 H   0  0  0  0  0  0
   91.5774   53.2733  273.0048 H   0  0  0  0  0  0
   93.1394   52.6759  270.0511 C   0  0  0  0  0  0
   92.8832   51.4348  269.4658 C   0  0  0  0  0  0
   92.1567   50.7733  269.9140 H   0  0  0  0  0  0
   91.9269   49.5273  267.2535 C   0  0  0  0  0  0
   91.1927   50.3117  267.3715 H   0  0  0  0  0  0
   91.5439   48.3050  266.6827 C   0  0  0  0  0  0
   90.2000   48.1211  266.3348 N   0  0  0  0  0  0
   89.5191   48.6483  266.8734 H   0  0  0  0  0  0
   89.6420   47.3045  265.3366 C   0  0  0  0  0  0
   90.3737   46.9264  264.1889 C   0  0  0  0  0  0
   91.3937   47.2481  264.0412 H   0  0  0  0  0  0
   89.8715   46.1475  263.2135 N   0  0  0  0  0  0
   88.6026   45.7187  263.3064 C   0  0  0  0  0  0
   88.2461   45.0917  262.5021 H   0  0  0  0  0  0
   87.7709   46.0478  264.3846 C   0  0  0  0  0  0
   86.7594   45.6702  264.4305 H   0  0  0  0  0  0
   88.2930   46.8651  265.4056 C   0  0  0  0  0  0
   87.2228   47.2088  266.8055 S   0  0  0  0  0  0
   85.8298   47.1503  266.3430 O   0  0  0  0  0  0
   87.6840   48.4259  267.4844 O   0  0  0  0  0  0
   87.5303   45.7874  267.9262 C   0  0  0  0  0  0
   86.9111   45.8900  268.8170 H   0  0  0  0  0  0
   87.2741   44.8628  267.4070 H   0  0  0  0  0  0
   88.5835   45.7689  268.2043 H   0  0  0  0  0  0
   92.5078   47.2914  266.5409 C   0  0  0  0  0  0
   92.2228   46.3464  266.1125 H   0  0  0  0  0  0
  1  2  1  0  0  0
  2  7  1  0  0  0
  2  3  2  0  0  0
  3  4  1  0  0  0
  4 52  1  0  0  0
  4  5  2  0  0  0
  5  6  1  0  0  0
  5  9  1  0  0  0
  6  7  2  0  0  0
  7  8  1  0  0  0
  9 10  1  0  0  0
  9 31  2  0  0  0
 10 29  1  0  0  0
 10 11  2  0  0  0
 11 12  1  0  0  0
 11 13  1  0  0  0
 13 14  1  0  0  0
 13 18  2  0  0  0
 14 15  1  0  0  0
 14 16  1  0  0  0
 14 17  1  0  0  0
 18 28  1  0  0  0
 18 19  1  0  0  0
 19 20  1  0  0  0
 19 21  2  0  0  0
 21 22  1  0  0  0
 21 23  1  0  0  0
 23 24  1  0  0  0
 23 28  1  0  0  0
 24 25  1  0  0  0
 24 26  1  0  0  0
 24 27  1  0  0  0
 28 29  2  0  0  0
 29 30  1  0  0  0
 31 32  1  0  0  0
 31 33  1  0  0  0
 33 34  1  0  0  0
 33 52  2  0  0  0
 34 35  1  0  0  0
 34 36  1  0  0  0
 36 44  1  0  0  0
 36 37  2  0  0  0
 37 38  1  0  0  0
 37 39  1  0  0  0
 39 40  2  0  0  0
 40 41  1  0  0  0
 40 42  1  0  0  0
 42 43  1  0  0  0
 42 44  2  0  0  0
 44 45  1  0  0  0
 45 46  2  0  0  0
 45 47  2  0  0  0
 45 48  1  0  0  0
 48 49  1  0  0  0
 48 50  1  0  0  0
 48 51  1  0  0  0
 52 53  1  0  0  0
M  END
> <s_m_source_file>
ligprep_pfkfb3.smi

> <i_m_source_file_index>
28

> <i_lp_mmshare_version>
53161

> <i_f3d_flags>
0

> <s_epik_input>
W2NIXTFbY0hdbihbQ0gzXSljKGMxMilbY0hdYyhbY0hdYzJbQ0gzXSktYyhjKGMzNCluW2NIXVtjSF1uMylbY0hdYyhbY0hdNClbTkhdYzVbY0hdbltjSF1bY0hdYzVTKD1PKSg9TylbQ0gzXQ==

> <s_epik_cmdline>
J2VwaWtfcHl0aG9uJywgJy1waHQnLCAnMC4wJywgJy1waCcsICc3LjQnLCAnLXRuJywgJzgnLCAnLW1hJywgJzUwMCcsICctaW1hZScsICc8aW5maWxlLm1hZT4nLCAnLW9tYWUnLCAnPG91dGZpbGUubWFlPic=

> <r_lp_tautomer_probability>
1

> <r_epik_Ionization_Penalty>
0

> <r_epik_Ionization_Penalty_Charging>
0

> <r_epik_Ionization_Penalty_Neutral>
0

> <r_epik_State_Penalty>
-0

> <r_epik_Charging_Adjusted_Penalty>
0

> <i_epik_Tot_Q>
0

> <i_epik_Tot_abs_Q>
0

> <s_lp_Force_Field>
S-OPLS

> <r_lp_Energy>
47.7364

> <b_lp_Chiralities_Consistent>
1

> <s_lp_Variant>
lig_56-1

> <s_i_glide_gridfile>
glide-grid_6HVI-PFKFB3

> <i_i_glide_lignum>
28

> <i_i_glide_rotatable_bonds>
4

> <r_i_docking_score>
-12.0132

> <r_i_glide_ligand_efficiency>
-0.375412

> <r_i_glide_ligand_efficiency_sa>
-1.19186

> <r_i_glide_ligand_efficiency_ln>
-2.69008

> <r_i_glide_gscore>
-12.0132

> <r_i_glide_lipo>
-6.48172

> <r_i_glide_hbond>
-0.32

> <r_i_glide_metal>
-0

> <r_i_glide_rewards>
-1.31898

> <r_i_glide_evdw>
-63.3686

> <r_i_glide_ecoul>
-7.02096

> <r_i_glide_erotb>
0.406531

> <r_i_glide_esite>
-0.077448

> <r_i_glide_emodel>
-119.686

> <r_i_glide_energy>
-70.3895

> <r_i_glide_einternal>
1.55901e-07

> <i_i_glide_confnum>
3

> <i_i_glide_posenum>
3

> <r_i_glide_eff_state_penalty>
-0

> <r_i_glide_rmsd>
0.0936235

> <s_glide_core_constrain_type>
snapped_core_restrain
$$$$