lig_7846
                    3D
 Schrodinger Suite 2021-1.
 47 51  0  0  1  0            999 V2000
  -19.9232   -9.3319   37.7011 H   0  0  0  0  0  0
  -19.3177   -9.9415   38.3488 C   0  0  0  0  0  0
  -18.7986   -9.4156   39.4465 N   0  0  0  0  0  0
  -18.1174  -10.4327   40.0252 N   0  0  0  0  0  0
  -17.4242  -10.2102   41.2775 C   0  0  0  0  0  0
  -17.3108  -11.1661   41.7901 H   0  0  0  0  0  0
  -18.0347   -9.5695   41.9158 H   0  0  0  0  0  0
  -16.0690   -9.5629   41.0661 C   0  0  0  0  0  0
  -16.1361   -8.5197   40.7675 H   0  0  0  0  0  0
  -14.8690   -9.9616   41.8979 C   0  0  0  0  0  0
  -14.9844  -10.7683   42.6195 H   0  0  0  0  0  0
  -14.1705   -9.1791   42.1882 H   0  0  0  0  0  0
  -14.9320  -10.3317   40.4354 C   0  0  0  0  0  0
  -14.2855   -9.7907   39.7480 H   0  0  0  0  0  0
  -15.1069  -11.3747   40.1838 H   0  0  0  0  0  0
  -18.1923  -11.5933   39.2833 C   0  0  0  0  0  0
  -17.6998  -12.5060   39.5784 H   0  0  0  0  0  0
  -18.9644  -11.3080   38.1991 C   0  0  0  0  0  0
  -19.3398  -12.2122   37.1190 C   0  0  0  0  0  0
  -19.8856  -13.4670   37.1390 C   0  0  0  0  0  0
  -20.3171  -14.2832   38.3156 C   0  0  0  0  0  0
  -19.5857  -14.2291   39.1157 H   0  0  0  0  0  0
  -21.2683  -13.9281   38.7101 H   0  0  0  0  0  0
  -20.4378  -15.3338   38.0532 H   0  0  0  0  0  0
  -20.0511  -13.9549   35.8521 N   0  0  0  0  0  0
  -19.6225  -12.9986   35.0256 C   0  0  0  0  0  0
  -19.5151  -12.8836   33.5972 C   0  0  0  0  0  0
  -19.9144  -13.9287   32.7321 N   0  0  0  0  0  0
  -21.1803  -14.6290   32.9504 C   0  0  0  0  0  0
  -21.4491  -14.7131   34.0006 H   0  0  0  0  0  0
  -21.9762  -14.0482   32.4845 H   0  0  0  0  0  0
  -21.1316  -16.0422   32.3327 C   0  0  0  0  0  0
  -22.1145  -16.5130   32.3816 H   0  0  0  0  0  0
  -20.4565  -16.6850   32.8972 H   0  0  0  0  0  0
  -20.7197  -15.9744   30.9687 O   0  0  0  0  0  0
  -19.4235  -15.3997   30.8254 C   0  0  0  0  0  0
  -19.1417  -15.4110   29.7721 H   0  0  0  0  0  0
  -18.6781  -15.9940   31.3566 H   0  0  0  0  0  0
  -19.4390  -13.9556   31.3497 C   0  0  0  0  0  0
  -20.0831  -13.3332   30.7269 H   0  0  0  0  0  0
  -18.4276  -13.5524   31.2854 H   0  0  0  0  0  0
  -18.9973  -11.8213   33.0384 N   0  0  0  0  0  0
  -18.5690  -10.7884   33.8223 C   0  0  0  0  0  0
  -18.1517   -9.9431   33.2829 H   0  0  0  0  0  0
  -18.6300  -10.7856   35.1860 C   0  0  0  0  0  0
  -18.2656   -9.9785   35.8113 H   0  0  0  0  0  0
  -19.1553  -11.8903   35.7818 N   0  0  0  0  0  0
  1  2  1  0  0  0
  2 18  1  0  0  0
  2  3  2  0  0  0
  3  4  1  0  0  0
  4  5  1  0  0  0
  4 16  1  0  0  0
  5  6  1  0  0  0
  5  7  1  0  0  0
  5  8  1  0  0  0
  8 13  1  0  0  0
  8  9  1  0  0  0
  8 10  1  0  0  0
 10 11  1  0  0  0
 10 12  1  0  0  0
 10 13  1  0  0  0
 13 14  1  0  0  0
 13 15  1  0  0  0
 16 17  1  0  0  0
 16 18  2  0  0  0
 18 19  1  0  0  0
 19 47  1  0  0  0
 19 20  2  0  0  0
 20 21  1  0  0  0
 20 25  1  0  0  0
 21 22  1  0  0  0
 21 23  1  0  0  0
 21 24  1  0  0  0
 25 26  2  0  0  0
 26 47  1  0  0  0
 26 27  1  0  0  0
 27 28  1  0  0  0
 27 42  2  0  0  0
 28 39  1  0  0  0
 28 29  1  0  0  0
 29 30  1  0  0  0
 29 31  1  0  0  0
 29 32  1  0  0  0
 32 33  1  0  0  0
 32 34  1  0  0  0
 32 35  1  0  0  0
 35 36  1  0  0  0
 36 37  1  0  0  0
 36 38  1  0  0  0
 36 39  1  0  0  0
 39 40  1  0  0  0
 39 41  1  0  0  0
 42 43  1  0  0  0
 43 44  1  0  0  0
 43 45  2  0  0  0
 45 46  1  0  0  0
 45 47  1  0  0  0
M  END
> <s_m_source_file>
ligprep_pde10.smi

> <i_m_source_file_index>
30

> <i_lp_mmshare_version>
53161

> <i_f3d_flags>
0

> <s_epik_input>
W0NIMl0xW0NIMl1bQ0hdMVtDSDJdbjJuW2NIXWMoW2NIXTIpLWMoYyhuMylbQ0gzXSluKGMzNClbY0hdW2NIXW5jNE41W0NIMl1bQ0gyXU9bQ0gyXVtDSDJdNQ==

> <s_epik_cmdline>
J2VwaWtfcHl0aG9uJywgJy1waHQnLCAnMC4wJywgJy1waCcsICc3LjQnLCAnLXRuJywgJzgnLCAnLW1hJywgJzUwMCcsICctaW1hZScsICc8aW5maWxlLm1hZT4nLCAnLW9tYWUnLCAnPG91dGZpbGUubWFlPic=

> <r_lp_tautomer_probability>
1

> <r_epik_Ionization_Penalty>
0.0004

> <r_epik_Ionization_Penalty_Charging>
0.0003

> <r_epik_Ionization_Penalty_Neutral>
0

> <r_epik_State_Penalty>
-0

> <r_epik_Charging_Adjusted_Penalty>
0.000349532

> <i_epik_Tot_Q>
0

> <i_epik_Tot_abs_Q>
0

> <s_lp_Force_Field>
S-OPLS

> <r_lp_Energy>
31.9464

> <b_lp_Chiralities_Consistent>
1

> <s_lp_Variant>
lig_7846-1

> <s_i_glide_gridfile>
glide-grid_4BBX-PDE10

> <i_i_glide_lignum>
31

> <i_i_glide_rotatable_bonds>
4

> <r_i_docking_score>
-7.36538

> <r_i_glide_ligand_efficiency>
-0.294615

> <r_i_glide_ligand_efficiency_sa>
-0.86146

> <r_i_glide_ligand_efficiency_ln>
-1.74582

> <r_i_glide_gscore>
-7.36538

> <r_i_glide_lipo>
-3.15662

> <r_i_glide_hbond>
-0.286489

> <r_i_glide_metal>
-0

> <r_i_glide_rewards>
-2.21342

> <r_i_glide_evdw>
-35.9824

> <r_i_glide_ecoul>
-3.80188

> <r_i_glide_erotb>
0.660556

> <r_i_glide_esite>
0

> <r_i_glide_emodel>
-56.2314

> <r_i_glide_energy>
-39.7843

> <r_i_glide_einternal>
1.11038

> <i_i_glide_confnum>
1

> <i_i_glide_posenum>
7

> <r_i_glide_eff_state_penalty>
-0

> <r_i_glide_rmsd>
0.0924287

> <s_glide_core_constrain_type>
snapped_core_restrain
$$$$