lig_5h
                    3D
 Schrodinger Suite 2021-1.
 41 43  0  0  1  0            999 V2000
  -38.9013  -11.3847    4.6805 H   0  0  0  0  0  0
  -38.8551  -11.6703    5.5814 O   0  0  0  0  0  0
  -38.6262  -10.5864    6.4259 C   0  0  0  0  0  0
  -38.6622  -10.9435    7.8993 C   0  0  0  0  0  0
  -39.2253  -12.1653    8.3435 C   0  0  0  0  0  0
  -39.6209  -12.8748    7.6295 H   0  0  0  0  0  0
  -39.3111  -12.4611    9.7025 C   0  0  0  0  0  0
  -39.7327  -13.4080   10.0071 H   0  0  0  0  0  0
  -38.8356  -11.5394   10.6532 C   0  0  0  0  0  0
  -38.8981  -11.8421   12.1104 C   0  0  0  0  0  0
  -39.5979  -12.8542   12.5483 N   0  0  0  0  0  0
  -39.6385  -13.1653   13.9225 C   0  0  0  0  0  0
  -40.4377  -14.2447   14.3714 C   0  0  0  0  0  0
  -41.1296  -14.9652   13.4187 O   0  0  0  0  0  0
  -41.9253  -16.0721   13.8304 C   0  0  0  0  0  0
  -42.3969  -16.5129   12.9500 H   0  0  0  0  0  0
  -41.3202  -16.8376   14.3018 H   0  0  0  0  0  0
  -42.7196  -15.7549   14.5100 H   0  0  0  0  0  0
  -40.5099  -14.5223   15.7604 C   0  0  0  0  0  0
  -41.1088  -15.3266   16.1504 H   0  0  0  0  0  0
  -39.7851  -13.7513   16.6749 C   0  0  0  0  0  0
  -39.8520  -13.9765   17.7324 H   0  0  0  0  0  0
  -38.9709  -12.6850   16.2249 C   0  0  0  0  0  0
  -38.4183  -12.0995   16.9321 H   0  0  0  0  0  0
  -38.9077  -12.3925   14.8510 C   0  0  0  0  0  0
  -38.0658  -11.2678   14.3182 C   0  0  0  0  0  0
  -37.3289  -10.6045   15.0404 O   0  0  0  0  0  0
  -38.1661  -11.0654   13.0004 N   0  0  0  0  0  0
  -37.5656  -10.3592   12.6076 H   0  0  0  0  0  0
  -38.2726  -10.3190   10.2269 C   0  0  0  0  0  0
  -37.9040   -9.5813   10.9180 H   0  0  0  0  0  0
  -38.1885  -10.0270    8.8536 C   0  0  0  0  0  0
  -37.7737   -9.0784    8.5587 H   0  0  0  0  0  0
  -37.2463  -10.0783    5.9705 C   0  0  0  0  0  0
  -36.9832   -9.1351    6.4405 H   0  0  0  0  0  0
  -37.1843   -9.9298    4.8917 H   0  0  0  0  0  0
  -36.4844  -10.8257    6.2264 H   0  0  0  0  0  0
  -39.7584   -9.6323    6.0794 C   0  0  0  0  0  0
  -39.6348   -8.6579    6.5783 H   0  0  0  0  0  0
  -39.7587   -9.5369    5.0068 H   0  0  0  0  0  0
  -40.7289  -10.0411    6.3697 H   0  0  0  0  0  0
  1  2  1  0  0  0
  2  3  1  0  0  0
  3  4  1  0  0  0
  3 34  1  0  0  0
  3 38  1  0  0  0
  4 32  1  0  0  0
  4  5  2  0  0  0
  5  6  1  0  0  0
  5  7  1  0  0  0
  7  8  1  0  0  0
  7  9  2  0  0  0
  9 10  1  0  0  0
  9 30  1  0  0  0
 10 28  1  0  0  0
 10 11  2  0  0  0
 11 12  1  0  0  0
 12 25  2  0  0  0
 12 13  1  0  0  0
 13 14  1  0  0  0
 13 19  2  0  0  0
 14 15  1  0  0  0
 15 16  1  0  0  0
 15 17  1  0  0  0
 15 18  1  0  0  0
 19 20  1  0  0  0
 19 21  1  0  0  0
 21 22  1  0  0  0
 21 23  2  0  0  0
 23 24  1  0  0  0
 23 25  1  0  0  0
 25 26  1  0  0  0
 26 27  2  0  0  0
 26 28  1  0  0  0
 28 29  1  0  0  0
 30 31  1  0  0  0
 30 32  2  0  0  0
 32 33  1  0  0  0
 34 35  1  0  0  0
 34 36  1  0  0  0
 34 37  1  0  0  0
 38 39  1  0  0  0
 38 40  1  0  0  0
 38 41  1  0  0  0
M  END
> <s_m_source_file>
ligprep_tnks2.smi

> <i_m_source_file_index>
12

> <i_lp_mmshare_version>
53161

> <i_f3d_flags>
0

> <s_epik_input>
W09IXUMoW0NIM10pKFtDSDNdKWMxW2NIXVtjSF1jKFtjSF1bY0hdMSktYyhuMilbbkhdYyg9TyljKGMyMylbY0hdW2NIXVtjSF1jM09bQ0gzXQ==

> <s_epik_cmdline>
J2VwaWtfcHl0aG9uJywgJy1waHQnLCAnMC4wJywgJy1waCcsICc3LjQnLCAnLXRuJywgJzgnLCAnLW1hJywgJzUwMCcsICctaW1hZScsICc8aW5maWxlLm1hZT4nLCAnLW9tYWUnLCAnPG91dGZpbGUubWFlPic=

> <r_lp_tautomer_probability>
1

> <r_epik_Ionization_Penalty>
0.0092

> <r_epik_Ionization_Penalty_Charging>
0.0092

> <r_epik_Ionization_Penalty_Neutral>
0

> <r_epik_State_Penalty>
-0

> <r_epik_Charging_Adjusted_Penalty>
0.00919184

> <i_epik_Tot_Q>
0

> <i_epik_Tot_abs_Q>
0

> <s_lp_Force_Field>
S-OPLS

> <r_lp_Energy>
30.5369

> <b_lp_Chiralities_Consistent>
1

> <s_lp_Variant>
lig_5h-1

> <s_i_glide_gridfile>
glide-grid_4UI5-TNKS2

> <i_i_glide_lignum>
12

> <i_i_glide_rotatable_bonds>
4

> <r_i_docking_score>
-11.753

> <r_i_glide_ligand_efficiency>
-0.511

> <r_i_glide_ligand_efficiency_sa>
-1.45322

> <r_i_glide_ligand_efficiency_ln>
-2.84198

> <r_i_glide_gscore>
-11.753

> <r_i_glide_lipo>
-4.49086

> <r_i_glide_hbond>
-0.81898

> <r_i_glide_metal>
-0

> <r_i_glide_rewards>
-3.1021

> <r_i_glide_evdw>
-48.1716

> <r_i_glide_ecoul>
-9.80767

> <r_i_glide_erotb>
0.538673

> <r_i_glide_esite>
0

> <r_i_glide_emodel>
-93.6234

> <r_i_glide_energy>
-57.9793

> <r_i_glide_einternal>
0.308894

> <i_i_glide_confnum>
12

> <i_i_glide_posenum>
10

> <r_i_glide_eff_state_penalty>
-0

> <r_i_glide_rmsd>
0.0890737

> <s_glide_core_constrain_type>
snapped_core_restrain
$$$$