lig_32
                    3D
 Schrodinger Suite 2021-1.
 45 48  0  0  1  0            999 V2000
   30.6043   17.9670    9.0896 H   0  0  0  0  0  0
   29.5994   17.8422    9.4777 C   0  0  0  0  0  0
   28.9352   16.7343    9.0874 N   0  0  0  0  0  0
   27.6696   16.5384    9.5316 C   0  0  0  0  0  0
   26.9789   15.3281    9.0338 C   0  0  0  0  0  0
   27.6829   14.1336    8.7697 C   0  0  0  0  0  0
   28.7546   14.0973    8.9221 H   0  0  0  0  0  0
   27.0174   12.9765    8.3233 C   0  0  0  0  0  0
   27.5774   12.0719    8.1517 H   0  0  0  0  0  0
   25.6264   12.9899    8.1163 C   0  0  0  0  0  0
   25.0291   11.8145    7.7158 O   0  0  0  0  0  0
   23.6221   11.6800    7.9372 C   0  0  0  0  0  0
   23.3445   11.4324    9.4392 C   0  0  0  0  0  0
   22.2752   11.3726    9.6304 H   0  0  0  0  0  0
   23.7903   10.4931    9.7694 H   0  0  0  0  0  0
   23.7427   12.2222   10.0768 H   0  0  0  0  0  0
   23.1937   10.4376    7.1408 C   0  0  0  0  0  0
   22.1301   10.2367    7.2542 H   0  0  0  0  0  0
   23.3884   10.5638    6.0756 H   0  0  0  0  0  0
   23.7367    9.5539    7.4688 H   0  0  0  0  0  0
   22.9024   12.9174    7.3753 C   0  0  0  0  0  0
   21.8246   12.8153    7.4748 H   0  0  0  0  0  0
   23.1046   12.9491    6.3045 H   0  0  0  0  0  0
   23.3968   14.2370    8.0088 C   0  0  1  0  0  0
   23.0106   15.4398    7.1306 C   0  0  0  0  0  0
   23.4384   15.6253    5.9879 O   0  0  0  0  0  0
   22.1717   16.2203    7.8025 N   0  0  0  0  0  0
   21.5935   17.4991    7.3904 C   0  0  0  0  0  0
   21.9616   17.8275    6.4202 H   0  0  0  0  0  0
   20.5055   17.4304    7.3459 H   0  0  0  0  0  0
   21.8430   18.2489    8.1425 H   0  0  0  0  0  0
   21.9717   15.6364    9.0336 C   0  0  0  0  0  0
   21.1300   16.2538    9.9311 N   0  0  0  0  0  0
   21.0775   15.9596   10.9092 H   0  0  0  0  0  0
   22.6268   14.5435    9.2055 N   0  0  0  0  0  0
   24.9003   14.1934    8.3174 C   0  0  0  0  0  0
   25.5843   15.3348    8.8018 C   0  0  0  0  0  0
   25.0254   16.2420    8.9775 H   0  0  0  0  0  0
   27.0510   17.4485   10.4200 C   0  0  0  0  0  0
   26.0499   17.2699   10.7840 H   0  0  0  0  0  0
   27.7490   18.5976   10.8267 C   0  0  0  0  0  0
   27.2988   19.3045   11.5044 H   0  0  0  0  0  0
   29.0438   18.8099   10.3317 C   0  0  0  0  0  0
   29.6056   19.6920   10.6109 H   0  0  0  0  0  0
   20.7050   17.1653    9.8018 H   0  0  0  0  0  0
  1  2  1  0  0  0
  2 43  1  0  0  0
  2  3  2  0  0  0
  3  4  1  0  0  0
  4  5  1  0  0  0
  4 39  2  0  0  0
  5 37  1  0  0  0
  5  6  2  0  0  0
  6  7  1  0  0  0
  6  8  1  0  0  0
  8  9  1  0  0  0
  8 10  2  0  0  0
 10 36  1  0  0  0
 10 11  1  0  0  0
 11 12  1  0  0  0
 12 13  1  0  0  0
 12 17  1  0  0  0
 12 21  1  0  0  0
 13 14  1  0  0  0
 13 15  1  0  0  0
 13 16  1  0  0  0
 17 18  1  0  0  0
 17 19  1  0  0  0
 17 20  1  0  0  0
 21 22  1  0  0  0
 21 23  1  0  0  0
 21 24  1  0  0  0
 24 35  1  0  0  0
 24 25  1  0  0  0
 24 36  1  0  0  0
 25 26  2  0  0  0
 25 27  1  0  0  0
 27 28  1  0  0  0
 27 32  1  0  0  0
 28 29  1  0  0  0
 28 30  1  0  0  0
 28 31  1  0  0  0
 32 33  1  0  0  0
 32 35  2  0  0  0
 33 34  1  0  0  0
 33 45  1  0  0  0
 36 37  2  0  0  0
 37 38  1  0  0  0
 39 40  1  0  0  0
 39 41  1  0  0  0
 41 42  1  0  0  0
 41 43  2  0  0  0
 43 44  1  0  0  0
M  END
> <s_m_source_file>
ligprep_bace_hunt.smi

> <i_m_source_file_index>
23

> <i_lp_mmshare_version>
53161

> <i_f3d_flags>
0

> <s_epik_input>
W2NIXTFbY0hdW2NIXVtjSF1uYzEtYyhbY0hdMilbY0hdW2NIXWMoT0MoW0NIM10pKFtDSDNdKVtDSDJdMyljMltDQEBdMzRDKD1PKU4oW0NIM10pQyg9TjQpW05IMl0=

> <s_epik_cmdline>
J2VwaWtfcHl0aG9uJywgJy1waHQnLCAnMC4wJywgJy1waCcsICc3LjQnLCAnLXRuJywgJzgnLCAnLW1hJywgJzUwMCcsICctaW1hZScsICc8aW5maWxlLm1hZT4nLCAnLW9tYWUnLCAnPG91dGZpbGUubWFlPic=

> <r_lp_tautomer_probability>
1

> <r_epik_Ionization_Penalty>
1.0461

> <r_epik_Ionization_Penalty_Charging>
0

> <r_epik_Ionization_Penalty_Neutral>
1.0461

> <r_epik_State_Penalty>
-0

> <r_epik_Charging_Adjusted_Penalty>
0

> <i_epik_Tot_Q>
0

> <i_epik_Tot_abs_Q>
0

> <s_epik_Chemistry_Notes>
This compound has an imine and may undergo hydrolysis.

> <s_lp_Force_Field>
S-OPLS

> <r_lp_Energy>
38.1467

> <b_lp_Chiralities_Consistent>
1

> <s_lp_Variant>
lig_32-1

> <s_i_glide_gridfile>
glide-grid_4JPC-BACE_HUNT

> <i_i_glide_lignum>
23

> <i_i_glide_rotatable_bonds>
1

> <r_i_docking_score>
-6.51637

> <r_i_glide_ligand_efficiency>
-0.260655

> <r_i_glide_ligand_efficiency_sa>
-0.76216

> <r_i_glide_ligand_efficiency_ln>
-1.54458

> <r_i_glide_gscore>
-6.51637

> <r_i_glide_lipo>
-2.28928

> <r_i_glide_hbond>
-0.231072

> <r_i_glide_metal>
-0

> <r_i_glide_rewards>
-1.45831

> <r_i_glide_evdw>
-37.868

> <r_i_glide_ecoul>
-4.42615

> <r_i_glide_erotb>
0.166899

> <r_i_glide_esite>
-0.147287

> <r_i_glide_emodel>
-59.8127

> <r_i_glide_energy>
-42.2942

> <r_i_glide_einternal>
0.284297

> <i_i_glide_confnum>
16

> <i_i_glide_posenum>
2

> <r_i_glide_eff_state_penalty>
-0

> <r_i_glide_rmsd>
0.0923488

> <s_glide_core_constrain_type>
snapped_core_restrain
$$$$