lig_17
                    3D
 Schrodinger Suite 2021-1.
 41 44  0  0  1  0            999 V2000
   -1.0651   12.1841   -7.1955 H   0  0  0  0  0  0
   -2.1184   12.3824   -7.0503 C   0  0  0  0  0  0
   -2.4897   13.5233   -6.5558 N   0  0  0  0  0  0
   -3.8469   13.4703   -6.5656 N   0  0  0  0  0  0
   -4.5430   14.5353   -6.0297 C   0  0  0  0  0  0
   -4.5286   14.3720   -4.9637 H   0  0  0  0  0  0
   -4.0688   15.4874   -6.2753 H   0  0  0  0  0  0
   -5.5428   14.5349   -6.4625 H   0  0  0  0  0  0
   -4.4098   12.3051   -6.9954 C   0  0  0  0  0  0
   -3.2627   11.5733   -7.3419 C   0  0  0  0  0  0
   -3.4355   10.2896   -7.8816 C   0  0  0  0  0  0
   -2.5503    9.7330   -8.1569 H   0  0  0  0  0  0
   -4.7187    9.7653   -8.0960 C   0  0  0  0  0  0
   -4.8177    8.7968   -8.5508 H   0  0  0  0  0  0
   -5.8695   10.5017   -7.7203 C   0  0  0  0  0  0
   -7.2419    9.9181   -7.9666 C   0  0  0  0  0  0
   -8.0031   10.5808   -7.5399 H   0  0  0  0  0  0
   -7.3117    8.9825   -7.4106 H   0  0  0  0  0  0
   -7.5279    9.6958   -9.4244 C   0  0  0  0  0  0
   -8.1392    8.6091   -9.8312 N   0  0  0  0  0  0
   -8.3081    8.7483  -11.1700 N   0  0  0  0  0  0
   -8.7940    8.0300  -11.7006 H   0  0  0  0  0  0
   -7.7823    9.9195  -11.6773 C   0  0  0  0  0  0
   -7.2134   10.5541  -10.5379 C   0  0  0  0  0  0
   -6.5262   11.7709  -10.7500 C   0  0  0  0  0  0
   -6.0846   12.2698   -9.9021 H   0  0  0  0  0  0
   -6.3959   12.3374  -12.0422 C   0  0  0  0  0  0
   -5.6158   13.6068  -12.2378 C   0  0  0  0  0  0
   -6.0113   14.4719  -13.0258 O   0  0  0  0  0  0
   -4.4753   13.7060  -11.5550 N   0  0  0  0  0  0
   -4.1921   12.9188  -10.9869 H   0  0  0  0  0  0
   -3.5775   14.8538  -11.6059 C   0  0  0  0  0  0
   -2.6602   14.6567  -11.0510 H   0  0  0  0  0  0
   -4.0528   15.7343  -11.1694 H   0  0  0  0  0  0
   -3.2961   15.0906  -12.6329 H   0  0  0  0  0  0
   -7.0363   11.7149  -13.1369 C   0  0  0  0  0  0
   -6.9813   12.1516  -14.1255 H   0  0  0  0  0  0
   -7.7323   10.5028  -12.9561 C   0  0  0  0  0  0
   -8.2126   10.0226  -13.7975 H   0  0  0  0  0  0
   -5.7111   11.7762   -7.1501 C   0  0  0  0  0  0
   -6.5711   12.3600   -6.8593 H   0  0  0  0  0  0
  1  2  1  0  0  0
  2 10  1  0  0  0
  2  3  2  0  0  0
  3  4  1  0  0  0
  4  5  1  0  0  0
  4  9  1  0  0  0
  5  6  1  0  0  0
  5  7  1  0  0  0
  5  8  1  0  0  0
  9 40  1  0  0  0
  9 10  2  0  0  0
 10 11  1  0  0  0
 11 12  1  0  0  0
 11 13  2  0  0  0
 13 14  1  0  0  0
 13 15  1  0  0  0
 15 16  1  0  0  0
 15 40  2  0  0  0
 16 17  1  0  0  0
 16 18  1  0  0  0
 16 19  1  0  0  0
 19 24  1  0  0  0
 19 20  2  0  0  0
 20 21  1  0  0  0
 21 22  1  0  0  0
 21 23  1  0  0  0
 23 38  1  0  0  0
 23 24  2  0  0  0
 24 25  1  0  0  0
 25 26  1  0  0  0
 25 27  2  0  0  0
 27 28  1  0  0  0
 27 36  1  0  0  0
 28 29  2  0  0  0
 28 30  1  0  0  0
 30 31  1  0  0  0
 30 32  1  0  0  0
 32 33  1  0  0  0
 32 34  1  0  0  0
 32 35  1  0  0  0
 36 37  1  0  0  0
 36 38  2  0  0  0
 38 39  1  0  0  0
 40 41  1  0  0  0
M  END
> <s_m_source_file>
ligprep_cdk8.smi

> <i_m_source_file_index>
5

> <i_lp_mmshare_version>
53161

> <i_f3d_flags>
0

> <s_epik_input>
W0NIM11uMW5bY0hdYyhjMTIpW2NIXVtjSF1jKFtjSF0yKVtDSDJdYyhuW25IXTMpYyhjMzQpW2NIXWMoW2NIXVtjSF00KUMoPU8pW05IXVtDSDNd

> <s_epik_cmdline>
J2VwaWtfcHl0aG9uJywgJy1waHQnLCAnMC4wJywgJy1waCcsICc3LjQnLCAnLXRuJywgJzgnLCAnLW1hJywgJzUwMCcsICctaW1hZScsICc8aW5maWxlLm1hZT4nLCAnLW9tYWUnLCAnPG91dGZpbGUubWFlPic=

> <r_lp_tautomer_probability>
1

> <r_epik_Ionization_Penalty>
0

> <r_epik_Ionization_Penalty_Charging>
0

> <r_epik_Ionization_Penalty_Neutral>
0

> <r_epik_State_Penalty>
-0

> <r_epik_Charging_Adjusted_Penalty>
0

> <i_epik_Tot_Q>
0

> <i_epik_Tot_abs_Q>
0

> <s_lp_Force_Field>
S-OPLS

> <r_lp_Energy>
29.3781

> <b_lp_Chiralities_Consistent>
1

> <s_lp_Variant>
lig_17-1

> <s_i_glide_gridfile>
glide-grid_5HNB-CDK8

> <i_i_glide_lignum>
5

> <i_i_glide_rotatable_bonds>
4

> <r_i_docking_score>
-9.1773

> <r_i_glide_ligand_efficiency>
-0.382387

> <r_i_glide_ligand_efficiency_sa>
-1.103

> <r_i_glide_ligand_efficiency_ln>
-2.19655

> <r_i_glide_gscore>
-9.1773

> <r_i_glide_lipo>
-3.63685

> <r_i_glide_hbond>
-0.552173

> <r_i_glide_metal>
-0

> <r_i_glide_rewards>
-2.86688

> <r_i_glide_evdw>
-36.4405

> <r_i_glide_ecoul>
-5.41059

> <r_i_glide_erotb>
0.512219

> <r_i_glide_esite>
0

> <r_i_glide_emodel>
-71.4118

> <r_i_glide_energy>
-41.8511

> <r_i_glide_einternal>
0.0632986

> <i_i_glide_confnum>
3

> <i_i_glide_posenum>
1

> <r_i_glide_eff_state_penalty>
-0

> <r_i_glide_rmsd>
0.0978176

> <s_glide_core_constrain_type>
snapped_core_restrain
$$$$