lig_23473
                    3D
 Schrodinger Suite 2021-1.
 41 43  0  0  1  0            999 V2000
   50.4176    5.2013    5.8282 H   0  0  0  0  0  0
   50.1691    5.7541    4.9315 C   0  0  0  0  0  0
   48.8215    6.0342    4.6285 C   0  0  0  0  0  0
   48.4915    6.7479    3.4582 C   0  0  0  0  0  0
   49.5056    7.1775    2.5784 C   0  0  0  0  0  0
   50.8549    6.9117    2.8933 C   0  0  0  0  0  0
   51.1888    6.1998    4.0647 C   0  0  0  0  0  0
   52.2264    5.9832    4.2925 H   0  0  0  0  0  0
   51.6417    7.2329    2.2252 H   0  0  0  0  0  0
   49.1550    7.8868    1.2857 C   0  0  0  0  0  0
   48.4642    7.2545    0.7410 H   0  0  0  0  0  0
   50.0421    7.9274    0.6529 H   0  0  0  0  0  0
   48.7418    9.2350    1.5031 O   0  0  0  0  0  0
   47.4784    9.6822    1.1645 C   0  0  0  0  0  0
   46.4379    8.8860    0.6226 C   0  0  0  0  0  0
   45.1987    9.4729    0.2960 C   0  0  0  0  0  0
   44.9616   10.8354    0.5693 C   0  0  0  0  0  0
   45.9661   11.6473    1.1395 C   0  0  0  0  0  0
   47.2234   11.0524    1.3957 C   0  0  0  0  0  0
   48.0247   11.6488    1.7999 H   0  0  0  0  0  0
   45.7038   13.0538    1.4820 C   0  0  0  0  0  0
   46.1718   13.8191    2.5196 C   0  0  0  0  0  0
   45.7056   15.1600    2.5487 C   0  0  0  0  0  0
   44.8279   15.4380    1.5331 C   0  0  0  0  0  0
   44.5995   14.0226    0.5146 S   0  0  0  0  0  0
   44.0893   16.6841    1.2121 C   0  0  0  0  0  0
   43.5582   16.8256    0.0905 O   0  0  0  0  0  0
   44.0255   17.5913    2.0746 O   0  5  0  0  0  0
   46.0234   16.0368    3.5154 O   0  0  0  0  0  0
   47.2246   16.7589    3.3421 C   0  0  0  0  0  0
   47.0688   17.5521    2.6073 H   0  0  0  0  0  0
   48.0234   16.1147    2.9687 H   0  0  0  0  0  0
   47.6231   17.3893    4.6831 C   0  0  0  0  0  0
   48.7219   17.9933    4.7154 O   0  0  0  0  0  0
   46.8274   17.2772    5.6517 O   0  5  0  0  0  0
   47.3005   13.1898    3.9155 Br  0  0  0  0  0  0
   43.9840   11.2400    0.3568 H   0  0  0  0  0  0
   44.4164    8.8546   -0.1179 H   0  0  0  0  0  0
   46.5467    7.8273    0.4478 H   0  0  0  0  0  0
   47.4543    6.9350    3.2234 H   0  0  0  0  0  0
   48.0340    5.6888    5.2848 H   0  0  0  0  0  0
  1  2  1  0  0  0
  2  7  1  0  0  0
  2  3  2  0  0  0
  3  4  1  0  0  0
  3 41  1  0  0  0
  4  5  2  0  0  0
  4 40  1  0  0  0
  5  6  1  0  0  0
  5 10  1  0  0  0
  6  7  2  0  0  0
  6  9  1  0  0  0
  7  8  1  0  0  0
 10 11  1  0  0  0
 10 12  1  0  0  0
 10 13  1  0  0  0
 13 14  1  0  0  0
 14 19  1  0  0  0
 14 15  2  0  0  0
 15 16  1  0  0  0
 15 39  1  0  0  0
 16 17  2  0  0  0
 16 38  1  0  0  0
 17 18  1  0  0  0
 17 37  1  0  0  0
 18 19  2  0  0  0
 18 21  1  0  0  0
 19 20  1  0  0  0
 21 25  1  0  0  0
 21 22  2  0  0  0
 22 23  1  0  0  0
 22 36  1  0  0  0
 23 24  2  0  0  0
 23 29  1  0  0  0
 24 25  1  0  0  0
 24 26  1  0  0  0
 26 27  2  0  0  0
 26 28  1  0  0  0
 29 30  1  0  0  0
 30 31  1  0  0  0
 30 32  1  0  0  0
 30 33  1  0  0  0
 33 34  2  0  0  0
 33 35  1  0  0  0
M  CHG  2  28  -1  35  -1
M  END
> <s_m_source_file>
ligprep_ptp1b.smi

> <i_m_source_file_index>
12

> <i_lp_mmshare_version>
53161

> <i_f3d_flags>
0

> <s_epik_input>
W2NIXTFbY0hdW2NIXVtjSF1bY0hdYzFbQ0gyXU9jMltjSF1bY0hdW2NIXWMoW2NIXTIpLWMzYyhCciljKGMoczMpQyg9TylbT0hdKU9bQ0gyXUMoPU8pW09IXQ==

> <s_epik_cmdline>
J2VwaWtfcHl0aG9uJywgJy1waHQnLCAnMC4wJywgJy1waCcsICc3LjQnLCAnLXRuJywgJzgnLCAnLW1hJywgJzUwMCcsICctaW1hZScsICc8aW5maWxlLm1hZT4nLCAnLW9tYWUnLCAnPG91dGZpbGUubWFlPic=

> <r_lp_tautomer_probability>
1

> <r_epik_Ionization_Penalty>
0.0001

> <r_epik_Ionization_Penalty_Charging>
0.0001

> <r_epik_Ionization_Penalty_Neutral>
0

> <r_epik_State_Penalty>
-0

> <r_epik_Charging_Adjusted_Penalty>
9.21585e-05

> <i_epik_Tot_Q>
-2

> <i_epik_Tot_abs_Q>
2

> <s_lp_Force_Field>
S-OPLS

> <r_lp_Energy>
54.2038

> <b_lp_Chiralities_Consistent>
1

> <s_lp_Variant>
lig_23473-1

> <s_i_glide_gridfile>
glide-grid_2QBS-PTP1B

> <i_i_glide_lignum>
12

> <i_i_glide_rotatable_bonds>
8

> <r_i_docking_score>
-8.66845

> <r_i_glide_ligand_efficiency>
-0.309587

> <r_i_glide_ligand_efficiency_sa>
-0.940089

> <r_i_glide_ligand_efficiency_ln>
-2.00093

> <r_i_glide_gscore>
-8.66845

> <r_i_glide_lipo>
-1.76002

> <r_i_glide_hbond>
-1.16056

> <r_i_glide_metal>
-0

> <r_i_glide_rewards>
-0.305637

> <r_i_glide_evdw>
-42.0806

> <r_i_glide_ecoul>
-28.7155

> <r_i_glide_erotb>
0.757017

> <r_i_glide_esite>
-0.0952152

> <r_i_glide_emodel>
-137.279

> <r_i_glide_energy>
-70.7961

> <r_i_glide_einternal>
2.29209

> <i_i_glide_confnum>
75

> <i_i_glide_posenum>
64

> <r_i_glide_eff_state_penalty>
-0

> <r_i_glide_rmsd>
0.0784086

> <s_glide_core_constrain_type>
snapped_core_restrain
$$$$