lig_31
                    3D
 Schrodinger Suite 2021-1.
 45 48  0  0  1  0            999 V2000
   26.1044   17.2964   10.7543 H   0  0  0  0  0  0
   27.1014   17.4582   10.3722 C   0  0  0  0  0  0
   27.7024   18.5901   10.8013 N   0  0  0  0  0  0
   28.9524   18.8413   10.3664 C   0  0  0  0  0  0
   29.4147   19.7508   10.7235 H   0  0  0  0  0  0
   29.6522   17.9790    9.5067 C   0  0  0  0  0  0
   30.6577   18.2146    9.1897 H   0  0  0  0  0  0
   29.0116   16.8062    9.0658 C   0  0  0  0  0  0
   29.5307   16.1410    8.3927 H   0  0  0  0  0  0
   27.6952   16.5223    9.4924 C   0  0  0  0  0  0
   26.9752   15.3154    9.0301 C   0  0  0  0  0  0
   27.6685   14.1132    8.7708 C   0  0  0  0  0  0
   28.7354   14.0546    8.9227 H   0  0  0  0  0  0
   26.9917   12.9640    8.3269 C   0  0  0  0  0  0
   27.5433   12.0502    8.1564 H   0  0  0  0  0  0
   25.6000   12.9846    8.1292 C   0  0  0  0  0  0
   24.9928   11.8122    7.7319 O   0  0  0  0  0  0
   23.5886   11.6843    7.9542 C   0  0  0  0  0  0
   23.3141   11.4333    9.4550 C   0  0  0  0  0  0
   22.2438   11.3841    9.6589 H   0  0  0  0  0  0
   23.7547   10.4928    9.7853 H   0  0  0  0  0  0
   23.7235   12.2186   10.0908 H   0  0  0  0  0  0
   23.1433   10.4536    7.1500 C   0  0  0  0  0  0
   22.0771   10.2635    7.2776 H   0  0  0  0  0  0
   23.3289   10.5913    6.0849 H   0  0  0  0  0  0
   23.6808    9.5606    7.4648 H   0  0  0  0  0  0
   22.8745   12.9329    7.4052 C   0  0  0  0  0  0
   21.7934   12.8444    7.5232 H   0  0  0  0  0  0
   23.0486   12.9651    6.3276 H   0  0  0  0  0  0
   23.3865   14.2449    8.0329 C   0  0  1  0  0  0
   23.0220   15.4438    7.1431 C   0  0  0  0  0  0
   23.4506   15.6196    6.0001 O   0  0  0  0  0  0
   22.1848   16.2281    7.8114 N   0  0  0  0  0  0
   21.6120   17.4968    7.3813 C   0  0  0  0  0  0
   21.9486   17.7978    6.3910 H   0  0  0  0  0  0
   20.5217   17.4418    7.3677 H   0  0  0  0  0  0
   21.9222   18.2605    8.0863 H   0  0  0  0  0  0
   21.9690   15.6600    9.0461 C   0  0  0  0  0  0
   21.1205   16.2902    9.9324 N   0  0  0  0  0  0
   21.0698   15.9986   10.9056 H   0  0  0  0  0  0
   22.6165   14.5647    9.2283 N   0  0  0  0  0  0
   24.8875   14.1922    8.3342 C   0  0  0  0  0  0
   25.5795   15.3348    8.8075 C   0  0  0  0  0  0
   25.0285   16.2483    8.9811 H   0  0  0  0  0  0
   20.6888   17.1992    9.7937 H   0  0  0  0  0  0
  1  2  1  0  0  0
  2 10  1  0  0  0
  2  3  2  0  0  0
  3  4  1  0  0  0
  4  5  1  0  0  0
  4  6  2  0  0  0
  6  7  1  0  0  0
  6  8  1  0  0  0
  8  9  1  0  0  0
  8 10  2  0  0  0
 10 11  1  0  0  0
 11 43  1  0  0  0
 11 12  2  0  0  0
 12 13  1  0  0  0
 12 14  1  0  0  0
 14 15  1  0  0  0
 14 16  2  0  0  0
 16 42  1  0  0  0
 16 17  1  0  0  0
 17 18  1  0  0  0
 18 19  1  0  0  0
 18 23  1  0  0  0
 18 27  1  0  0  0
 19 20  1  0  0  0
 19 21  1  0  0  0
 19 22  1  0  0  0
 23 24  1  0  0  0
 23 25  1  0  0  0
 23 26  1  0  0  0
 27 28  1  0  0  0
 27 29  1  0  0  0
 27 30  1  0  0  0
 30 41  1  0  0  0
 30 31  1  0  0  0
 30 42  1  0  0  0
 31 32  2  0  0  0
 31 33  1  0  0  0
 33 34  1  0  0  0
 33 38  1  0  0  0
 34 35  1  0  0  0
 34 36  1  0  0  0
 34 37  1  0  0  0
 38 39  1  0  0  0
 38 41  2  0  0  0
 39 40  1  0  0  0
 39 45  1  0  0  0
 42 43  2  0  0  0
 43 44  1  0  0  0
M  END
> <s_m_source_file>
ligprep_bace_hunt.smi

> <i_m_source_file_index>
22

> <i_lp_mmshare_version>
53161

> <i_f3d_flags>
0

> <s_epik_input>
W2NIXTFbY0hdW2NIXW5bY0hdYzEtYyhbY0hdMilbY0hdW2NIXWMoT0MoW0NIM10pKFtDSDNdKVtDSDJdMyljMltDQEBdMzRDKD1PKU4oW0NIM10pQyg9TjQpW05IMl0=

> <s_epik_cmdline>
J2VwaWtfcHl0aG9uJywgJy1waHQnLCAnMC4wJywgJy1waCcsICc3LjQnLCAnLXRuJywgJzgnLCAnLW1hJywgJzUwMCcsICctaW1hZScsICc8aW5maWxlLm1hZT4nLCAnLW9tYWUnLCAnPG91dGZpbGUubWFlPic=

> <r_lp_tautomer_probability>
1

> <r_epik_Ionization_Penalty>
1.0477

> <r_epik_Ionization_Penalty_Charging>
0

> <r_epik_Ionization_Penalty_Neutral>
1.0477

> <r_epik_State_Penalty>
-0

> <r_epik_Charging_Adjusted_Penalty>
0

> <i_epik_Tot_Q>
0

> <i_epik_Tot_abs_Q>
0

> <s_epik_Chemistry_Notes>
This compound has an imine and may undergo hydrolysis.

> <s_lp_Force_Field>
S-OPLS

> <r_lp_Energy>
36.3702

> <b_lp_Chiralities_Consistent>
1

> <s_lp_Variant>
lig_31-1

> <s_i_glide_gridfile>
glide-grid_4JPC-BACE_HUNT

> <i_i_glide_lignum>
22

> <i_i_glide_rotatable_bonds>
1

> <r_i_docking_score>
-6.59506

> <r_i_glide_ligand_efficiency>
-0.263802

> <r_i_glide_ligand_efficiency_sa>
-0.771363

> <r_i_glide_ligand_efficiency_ln>
-1.56323

> <r_i_glide_gscore>
-6.59506

> <r_i_glide_lipo>
-2.21223

> <r_i_glide_hbond>
-0.238972

> <r_i_glide_metal>
-0

> <r_i_glide_rewards>
-1.45832

> <r_i_glide_evdw>
-37.7443

> <r_i_glide_ecoul>
-5.4509

> <r_i_glide_erotb>
0.166899

> <r_i_glide_esite>
-0.147579

> <r_i_glide_emodel>
-61.5599

> <r_i_glide_energy>
-43.1952

> <r_i_glide_einternal>
0.0866134

> <i_i_glide_confnum>
16

> <i_i_glide_posenum>
5

> <r_i_glide_eff_state_penalty>
-0

> <r_i_glide_rmsd>
0.0751597

> <s_glide_core_constrain_type>
snapped_core_restrain
$$$$