lig_49396360
                    3D
 Schrodinger Suite 2021-1.
 57 61  0  0  1  0            999 V2000
    7.5340    0.4505  -36.8130 C   0  0  0  0  0  0
    8.3712    1.5865  -36.2133 C   0  0  0  0  0  0
    9.8289    1.6235  -36.6901 C   0  0  0  0  0  0
    9.8572    1.7280  -38.1093 O   0  0  0  0  0  0
   11.0690    1.9397  -38.7326 C   0  0  0  0  0  0
   11.1418    1.7325  -40.1267 C   0  0  0  0  0  0
   12.3460    2.0063  -40.8111 C   0  0  0  0  0  0
   13.4587    2.4173  -40.0506 C   0  0  0  0  0  0
   13.4161    2.6011  -38.7146 N   0  0  0  0  0  0
   12.2487    2.3748  -38.0798 C   0  0  0  0  0  0
   12.4868    1.7986  -42.2498 C   0  0  0  0  0  0
   13.4469    1.0122  -42.7511 N   0  0  0  0  0  0
   13.2538    0.8749  -44.1301 N   0  0  0  0  0  0
   12.1977    1.6271  -44.4194 C   0  0  0  0  0  0
   11.7687    2.2119  -43.3042 N   0  0  0  0  0  0
   10.7206    3.1394  -43.3179 C   0  0  0  0  0  0
   10.2951    3.9672  -42.2438 C   0  0  0  0  0  0
    9.2349    4.8856  -42.3528 C   0  0  0  0  0  0
    8.5501    5.0087  -43.5716 C   0  0  0  0  0  0
    8.9599    4.2430  -44.6705 C   0  0  0  0  0  0
   10.0327    3.3379  -44.5624 C   0  0  0  0  0  0
   10.4364    2.6743  -45.6808 N   0  0  0  0  0  0
   11.5153    1.8629  -45.6291 C   0  0  0  0  0  0
   11.9579    1.1890  -46.9134 C   0  0  0  0  0  0
    8.8230    5.6993  -41.1340 C   0  0  0  0  0  0
    8.3256    7.0425  -41.4319 N   0  0  0  0  0  0
    9.3689    7.9382  -41.9481 C   0  0  0  0  0  0
    8.8384    9.3595  -42.2302 C   0  0  0  0  0  0
    8.2418    9.8890  -41.0520 O   0  0  0  0  0  0
    7.1772    9.0771  -40.5716 C   0  0  0  0  0  0
    7.7033    7.6621  -40.2638 C   0  0  0  0  0  0
    6.5099    0.4778  -36.4396 H   0  0  0  0  0  0
    7.9526   -0.5176  -36.5476 H   0  0  0  0  0  0
    7.4877    0.5155  -37.9002 H   0  0  0  0  0  0
    7.9058    2.5425  -36.4483 H   0  0  0  0  0  0
    8.3617    1.4923  -35.1281 H   0  0  0  0  0  0
   10.3023    2.4834  -36.2156 H   0  0  0  0  0  0
   10.3611    0.7263  -36.3698 H   0  0  0  0  0  0
   10.2716    1.3872  -40.6660 H   0  0  0  0  0  0
   14.4064    2.6150  -40.5300 H   0  0  0  0  0  0
   12.2814    2.5570  -37.0175 H   0  0  0  0  0  0
   10.8144    3.9467  -41.3027 H   0  0  0  0  0  0
    7.7261    5.6985  -43.6726 H   0  0  0  0  0  0
    8.4614    4.3682  -45.6212 H   0  0  0  0  0  0
   12.9636    1.5161  -47.1791 H   0  0  0  0  0  0
   11.9821    0.1069  -46.7809 H   0  0  0  0  0  0
   11.2922    1.4131  -47.7464 H   0  0  0  0  0  0
    8.0467    5.1228  -40.6291 H   0  0  0  0  0  0
    9.6606    5.7514  -40.4357 H   0  0  0  0  0  0
   10.1859    8.0062  -41.2284 H   0  0  0  0  0  0
    9.7928    7.5306  -42.8658 H   0  0  0  0  0  0
    8.1099    9.3622  -43.0410 H   0  0  0  0  0  0
    9.6484   10.0176  -42.5424 H   0  0  0  0  0  0
    6.3781    9.0447  -41.3143 H   0  0  0  0  0  0
    6.7641    9.5339  -39.6731 H   0  0  0  0  0  0
    6.8768    7.0408  -39.9159 H   0  0  0  0  0  0
    8.4208    7.7165  -39.4434 H   0  0  0  0  0  0
  1  2  1  0  0  0
  1 32  1  0  0  0
  1 33  1  0  0  0
  1 34  1  0  0  0
  2  3  1  0  0  0
  2 35  1  0  0  0
  2 36  1  0  0  0
  3  4  1  0  0  0
  3 37  1  0  0  0
  3 38  1  0  0  0
  4  5  1  0  0  0
  5 10  1  0  0  0
  5  6  2  0  0  0
  6  7  1  0  0  0
  6 39  1  0  0  0
  7  8  2  0  0  0
  7 11  1  0  0  0
  8  9  1  0  0  0
  8 40  1  0  0  0
  9 10  2  0  0  0
 10 41  1  0  0  0
 11 15  1  0  0  0
 11 12  2  0  0  0
 12 13  1  0  0  0
 13 14  2  0  0  0
 14 23  1  0  0  0
 14 15  1  0  0  0
 15 16  1  0  0  0
 16 21  1  0  0  0
 16 17  2  0  0  0
 17 18  1  0  0  0
 17 42  1  0  0  0
 18 19  2  0  0  0
 18 25  1  0  0  0
 19 20  1  0  0  0
 19 43  1  0  0  0
 20 21  2  0  0  0
 20 44  1  0  0  0
 21 22  1  0  0  0
 22 23  2  0  0  0
 23 24  1  0  0  0
 24 45  1  0  0  0
 24 46  1  0  0  0
 24 47  1  0  0  0
 25 26  1  0  0  0
 25 48  1  0  0  0
 25 49  1  0  0  0
 26 31  1  0  0  0
 26 27  1  0  0  0
 27 28  1  0  0  0
 27 50  1  0  0  0
 27 51  1  0  0  0
 28 29  1  0  0  0
 28 52  1  0  0  0
 28 53  1  0  0  0
 29 30  1  0  0  0
 30 31  1  0  0  0
 30 54  1  0  0  0
 30 55  1  0  0  0
 31 56  1  0  0  0
 31 57  1  0  0  0
M  END
> <s_m_source_file>
ligprep_pde2.smi

> <i_m_source_file_index>
13

> <i_lp_mmshare_version>
53161

> <i_f3d_flags>
0

> <s_epik_input>
W0NIM11bQ0gyXVtDSDJdT2MxW2NIXWMoW2NIXW5bY0hdMSktYyhubjIpbihjMjMpYzRjKG5jM1tDSDNdKVtjSF1bY0hdYyhbY0hdNClbQ0gyXU41W0NIMl1bQ0gyXU9bQ0gyXVtDSDJdNQ==

> <s_epik_cmdline>
J2VwaWtfcHl0aG9uJywgJy1waHQnLCAnMC4wJywgJy1waCcsICc3LjQnLCAnLXRuJywgJzgnLCAnLW1hJywgJzUwMCcsICctaW1hZScsICc8aW5maWxlLm1hZT4nLCAnLW9tYWUnLCAnPG91dGZpbGUubWFlPic=

> <r_lp_tautomer_probability>
1

> <r_epik_Ionization_Penalty>
0.1301

> <r_epik_Ionization_Penalty_Charging>
0

> <r_epik_Ionization_Penalty_Neutral>
0.1301

> <r_epik_State_Penalty>
0.1195

> <r_epik_Charging_Adjusted_Penalty>
0.119465

> <i_epik_Tot_Q>
0

> <i_epik_Tot_abs_Q>
0

> <s_lp_Force_Field>
S-OPLS

> <r_lp_Energy>
53.096

> <b_lp_Chiralities_Consistent>
1

> <s_lp_Variant>
lig_49396360-1

> <s_i_glide_gridfile>
glide-grid_6C7E-PDE2

> <i_i_glide_lignum>
13

> <i_i_glide_rotatable_bonds>
6

> <r_i_docking_score>
-7.42048

> <r_i_glide_ligand_efficiency>
-0.23937

> <r_i_glide_ligand_efficiency_sa>
-0.751954

> <r_i_glide_ligand_efficiency_ln>
-1.67355

> <r_i_glide_gscore>
-7.53998

> <r_i_glide_lipo>
-3.80469

> <r_i_glide_hbond>
-0.32

> <r_i_glide_metal>
-0

> <r_i_glide_rewards>
-1.16838

> <r_i_glide_evdw>
-40.944

> <r_i_glide_ecoul>
-4.66218

> <r_i_glide_erotb>
0.564557

> <r_i_glide_esite>
-0.0649499

> <r_i_glide_emodel>
-63.3841

> <r_i_glide_energy>
-45.6062

> <r_i_glide_einternal>
2.05362

> <i_i_glide_confnum>
70

> <i_i_glide_posenum>
44

> <r_i_glide_eff_state_penalty>
0.1195

> <r_i_glide_rmsd>
0.0817312

> <s_glide_core_constrain_type>
snapped_core_restrain
$$$$