lig_43249674
                    3D
 Schrodinger Suite 2021-1.
 48 52  0  0  1  0            999 V2000
   11.9164    1.2337  -46.9483 C   0  0  0  0  0  0
   11.4944    1.8627  -45.6370 C   0  0  0  0  0  0
   12.1854    1.6136  -44.4310 C   0  0  0  0  0  0
   13.2384    0.8531  -44.1524 N   0  0  0  0  0  0
   13.4403    0.9744  -42.7783 N   0  0  0  0  0  0
   12.4921    1.7674  -42.2647 C   0  0  0  0  0  0
   11.7706    2.1997  -43.3109 N   0  0  0  0  0  0
   10.7217    3.1247  -43.3064 C   0  0  0  0  0  0
   10.2843    3.9242  -42.2125 C   0  0  0  0  0  0
    9.2266    4.8481  -42.3141 C   0  0  0  0  0  0
    8.5519    4.9950  -43.5370 C   0  0  0  0  0  0
    8.9551    4.2409  -44.6426 C   0  0  0  0  0  0
   10.0312    3.3361  -44.5485 C   0  0  0  0  0  0
   10.4199    2.6832  -45.6727 N   0  0  0  0  0  0
    8.7963    5.6480  -41.0959 C   0  0  0  0  0  0
    8.3625    7.0084  -41.3959 N   0  0  0  0  0  0
    9.4583    7.8629  -41.8408 C   0  0  0  0  0  0
    8.9817    9.2968  -42.1438 C   0  0  0  0  0  0
    8.3154    9.8391  -41.0095 O   0  0  0  0  0  0
    7.2121    9.0419  -40.5887 C   0  0  0  0  0  0
    7.6969    7.6209  -40.2575 C   0  0  0  0  0  0
   12.3710    1.9696  -40.8221 C   0  0  0  0  0  0
   13.4481    2.5580  -40.1265 C   0  0  0  0  0  0
   13.3949    2.7201  -38.7290 C   0  0  0  0  0  0
   12.2446    2.3191  -38.0242 C   0  0  0  0  0  0
   11.1712    1.7234  -38.7113 C   0  0  0  0  0  0
   11.2394    1.5207  -40.1042 C   0  0  0  0  0  0
    9.9251    0.7238  -40.8951 Cl  0  0  0  0  0  0
   12.9093    1.5853  -47.2247 H   0  0  0  0  0  0
   11.9547    0.1519  -46.8577 H   0  0  0  0  0  0
   11.2309    1.4827  -47.7565 H   0  0  0  0  0  0
   10.7863    3.8683  -41.2617 H   0  0  0  0  0  0
    7.7296    5.6927  -43.6278 H   0  0  0  0  0  0
    8.4520    4.3651  -45.5921 H   0  0  0  0  0  0
    9.5995    5.6651  -40.3547 H   0  0  0  0  0  0
    7.9662    5.0954  -40.6486 H   0  0  0  0  0  0
    9.9300    7.4508  -42.7349 H   0  0  0  0  0  0
   10.2347    7.9064  -41.0732 H   0  0  0  0  0  0
    9.8305    9.9340  -42.3952 H   0  0  0  0  0  0
    8.3245    9.3015  -43.0108 H   0  0  0  0  0  0
    6.7572    9.4907  -39.7013 H   0  0  0  0  0  0
    6.4527    9.0228  -41.3676 H   0  0  0  0  0  0
    8.3742    7.6585  -39.4021 H   0  0  0  0  0  0
    6.8392    7.0113  -39.9564 H   0  0  0  0  0  0
   14.3254    2.8784  -40.6628 H   0  0  0  0  0  0
   14.2320    3.1666  -38.2155 H   0  0  0  0  0  0
   12.1898    2.4670  -36.9517 H   0  0  0  0  0  0
   10.3007    1.4007  -38.1608 H   0  0  0  0  0  0
  1  2  1  0  0  0
  1 29  1  0  0  0
  1 30  1  0  0  0
  1 31  1  0  0  0
  2 14  2  0  0  0
  2  3  1  0  0  0
  3  7  1  0  0  0
  3  4  2  0  0  0
  4  5  1  0  0  0
  5  6  2  0  0  0
  6  7  1  0  0  0
  6 22  1  0  0  0
  7  8  1  0  0  0
  8 13  1  0  0  0
  8  9  2  0  0  0
  9 10  1  0  0  0
  9 32  1  0  0  0
 10 11  2  0  0  0
 10 15  1  0  0  0
 11 12  1  0  0  0
 11 33  1  0  0  0
 12 13  2  0  0  0
 12 34  1  0  0  0
 13 14  1  0  0  0
 15 16  1  0  0  0
 15 35  1  0  0  0
 15 36  1  0  0  0
 16 21  1  0  0  0
 16 17  1  0  0  0
 17 18  1  0  0  0
 17 37  1  0  0  0
 17 38  1  0  0  0
 18 19  1  0  0  0
 18 39  1  0  0  0
 18 40  1  0  0  0
 19 20  1  0  0  0
 20 21  1  0  0  0
 20 41  1  0  0  0
 20 42  1  0  0  0
 21 43  1  0  0  0
 21 44  1  0  0  0
 22 27  1  0  0  0
 22 23  2  0  0  0
 23 24  1  0  0  0
 23 45  1  0  0  0
 24 25  2  0  0  0
 24 46  1  0  0  0
 25 26  1  0  0  0
 25 47  1  0  0  0
 26 27  2  0  0  0
 26 48  1  0  0  0
 27 28  1  0  0  0
M  END
> <s_m_source_file>
ligprep_pde2.smi

> <i_m_source_file_index>
1

> <i_lp_mmshare_version>
53161

> <i_f3d_flags>
0

> <s_epik_input>
Q2xjMVtjSF1bY0hdW2NIXVtjSF1jMS1jKG5uMiluKGMyMyljNGMobmMzW0NIM10pW2NIXVtjSF1jKFtjSF00KVtDSDJdTjVbQ0gyXVtDSDJdT1tDSDJdW0NIMl01

> <s_epik_cmdline>
J2VwaWtfcHl0aG9uJywgJy1waHQnLCAnMC4wJywgJy1waCcsICc3LjQnLCAnLXRuJywgJzgnLCAnLW1hJywgJzUwMCcsICctaW1hZScsICc8aW5maWxlLm1hZT4nLCAnLW9tYWUnLCAnPG91dGZpbGUubWFlPic=

> <r_epik_Ionization_Penalty>
0.1301

> <r_epik_Ionization_Penalty_Charging>
0

> <r_epik_Ionization_Penalty_Neutral>
0.1301

> <r_epik_State_Penalty>
0.1195

> <r_epik_Charging_Adjusted_Penalty>
0.119465

> <i_epik_Tot_Q>
0

> <i_epik_Tot_abs_Q>
0

> <s_lp_Force_Field>
S-OPLS

> <r_lp_Energy>
47.5684

> <b_lp_Chiralities_Consistent>
1

> <s_lp_Variant>
lig_43249674-1

> <s_i_glide_gridfile>
glide-grid_6C7E-PDE2

> <i_i_glide_lignum>
1

> <i_i_glide_rotatable_bonds>
3

> <r_i_docking_score>
-7.52673

> <r_i_glide_ligand_efficiency>
-0.268812

> <r_i_glide_ligand_efficiency_sa>
-0.816271

> <r_i_glide_ligand_efficiency_ln>
-1.73739

> <r_i_glide_gscore>
-7.64623

> <r_i_glide_lipo>
-3.63296

> <r_i_glide_hbond>
-0.32

> <r_i_glide_metal>
-0

> <r_i_glide_rewards>
-1.34577

> <r_i_glide_evdw>
-37.1137

> <r_i_glide_ecoul>
-5.34428

> <r_i_glide_erotb>
0.377854

> <r_i_glide_esite>
-0.0680239

> <r_i_glide_emodel>
-59.3518

> <r_i_glide_energy>
-42.4579

> <r_i_glide_einternal>
0.137908

> <i_i_glide_confnum>
4

> <i_i_glide_posenum>
2

> <r_i_glide_eff_state_penalty>
0.1195

> <r_i_glide_rmsd>
0.100378

> <s_glide_core_constrain_type>
snapped_core_restrain
$$$$