lig_35_L
                    3D
 Schrodinger Suite 2021-1.
 61 65  0  0  1  0            999 V2000
   11.1295   -4.6111   13.7614 H   0  0  0  0  0  0
   10.3845   -4.1766   14.4098 C   0  0  0  0  0  0
    9.8711   -3.0006   13.9869 N   0  0  0  0  0  0
    8.9555   -2.3952   14.7700 C   0  0  0  0  0  0
    8.5491   -1.4624   14.4076 H   0  0  0  0  0  0
    8.5211   -2.9289   15.9960 C   0  0  0  0  0  0
    7.7797   -2.4119   16.5893 H   0  0  0  0  0  0
    9.0715   -4.1521   16.4230 C   0  0  0  0  0  0
    8.7666   -4.5874   17.3627 H   0  0  0  0  0  0
   10.0328   -4.8032   15.6245 C   0  0  0  0  0  0
   10.6451   -6.0643   16.0745 C   0  0  0  0  0  0
   12.0485   -6.1903   16.1445 C   0  0  0  0  0  0
   12.6606   -5.3583   15.8342 H   0  0  0  0  0  0
   12.6669   -7.3531   16.6615 C   0  0  0  0  0  0
   14.2021   -7.4040   16.8047 C   0  0  2  0  0  0
   14.7920   -8.8093   17.0828 C   0  0  0  0  0  0
   14.8629   -9.7379   16.0191 C   0  0  0  0  0  0
   14.4817   -9.4680   15.0429 H   0  0  0  0  0  0
   15.4762  -10.9922   16.1887 C   0  0  0  0  0  0
   15.5197  -11.6618   15.3411 H   0  0  0  0  0  0
   16.0305  -11.3545   17.4384 C   0  0  0  0  0  0
   16.6725  -12.5599   17.6298 O   0  0  0  0  0  0
   17.4859  -13.0237   16.5569 C   0  0  0  0  0  0
   18.0566  -13.8903   16.8944 H   0  0  0  0  0  0
   16.8994  -13.3309   15.6823 H   0  0  0  0  0  0
   18.2050  -12.2539   16.2564 H   0  0  0  0  0  0
   15.9336  -10.4579   18.5316 C   0  0  0  0  0  0
   16.6009  -10.8313   19.8655 C   0  0  0  0  0  0
   16.3258  -11.8646   20.0796 H   0  0  0  0  0  0
   18.1376  -10.6993   19.7609 C   0  0  0  0  0  0
   18.6312  -11.6674   19.8527 H   0  0  0  0  0  0
   18.4253  -10.2874   18.7926 H   0  0  0  0  0  0
   18.5834   -9.7363   20.8687 C   0  0  0  0  0  0
   18.9262  -10.3032   21.7338 H   0  0  0  0  0  0
   19.4028   -9.0884   20.5537 H   0  0  0  0  0  0
   17.3280   -8.9503   21.2449 C   0  0  0  0  0  0
   17.3825   -8.5301   22.2482 H   0  0  0  0  0  0
   17.1741   -8.1288   20.5439 H   0  0  0  0  0  0
   16.2157   -9.9845   21.1005 C   0  0  0  0  0  0
   15.2047   -9.5731   21.0807 H   0  0  0  0  0  0
   16.2721  -10.6066   21.9952 H   0  0  0  0  0  0
   15.3097   -9.2000   18.3430 C   0  0  0  0  0  0
   15.2722   -8.5103   19.1676 H   0  0  0  0  0  0
   14.6661   -6.3238   17.8133 C   0  0  0  0  0  0
   14.2536   -6.2264   18.9724 O   0  0  0  0  0  0
   15.5332   -5.5129   17.2174 N   0  0  0  0  0  0
   16.1478   -4.3025   17.7569 C   0  0  0  0  0  0
   15.7061   -3.4180   17.2979 H   0  0  0  0  0  0
   16.0053   -4.2241   18.8361 H   0  0  0  0  0  0
   17.2220   -4.2893   17.5620 H   0  0  0  0  0  0
   15.6269   -5.9040   15.9048 C   0  0  0  0  0  0
   16.4832   -5.2149   15.0774 N   0  0  0  0  0  0
   16.5114   -5.3980   14.0757 H   0  0  0  0  0  0
   14.8632   -6.8932   15.6030 N   0  0  0  0  0  0
   11.8442   -8.4254   17.0780 C   0  0  0  0  0  0
   12.2707   -9.3327   17.4793 H   0  0  0  0  0  0
   10.4418   -8.3277   16.9778 C   0  0  0  0  0  0
    9.8245   -9.1553   17.2963 H   0  0  0  0  0  0
    9.8494   -7.1493   16.4913 C   0  0  0  0  0  0
    8.7727   -7.0855   16.4418 H   0  0  0  0  0  0
   16.9825   -4.3612   15.3065 H   0  0  0  0  0  0
  1  2  1  0  0  0
  2 10  1  0  0  0
  2  3  2  0  0  0
  3  4  1  0  0  0
  4  5  1  0  0  0
  4  6  2  0  0  0
  6  7  1  0  0  0
  6  8  1  0  0  0
  8  9  1  0  0  0
  8 10  2  0  0  0
 10 11  1  0  0  0
 11 59  1  0  0  0
 11 12  2  0  0  0
 12 13  1  0  0  0
 12 14  1  0  0  0
 14 55  2  0  0  0
 14 15  1  0  0  0
 15 54  1  0  0  0
 15 44  1  0  0  0
 15 16  1  0  0  0
 16 42  1  0  0  0
 16 17  2  0  0  0
 17 18  1  0  0  0
 17 19  1  0  0  0
 19 20  1  0  0  0
 19 21  2  0  0  0
 21 22  1  0  0  0
 21 27  1  0  0  0
 22 23  1  0  0  0
 23 24  1  0  0  0
 23 25  1  0  0  0
 23 26  1  0  0  0
 27 28  1  0  0  0
 27 42  2  0  0  0
 28 39  1  0  0  0
 28 29  1  0  0  0
 28 30  1  0  0  0
 30 31  1  0  0  0
 30 32  1  0  0  0
 30 33  1  0  0  0
 33 34  1  0  0  0
 33 35  1  0  0  0
 33 36  1  0  0  0
 36 37  1  0  0  0
 36 38  1  0  0  0
 36 39  1  0  0  0
 39 40  1  0  0  0
 39 41  1  0  0  0
 42 43  1  0  0  0
 44 45  2  0  0  0
 44 46  1  0  0  0
 46 47  1  0  0  0
 46 51  1  0  0  0
 47 48  1  0  0  0
 47 49  1  0  0  0
 47 50  1  0  0  0
 51 52  1  0  0  0
 51 54  2  0  0  0
 52 53  1  0  0  0
 52 61  1  0  0  0
 55 56  1  0  0  0
 55 57  1  0  0  0
 57 58  1  0  0  0
 57 59  2  0  0  0
 59 60  1  0  0  0
M  END
> <s_m_source_file>
ligprep_bace_p2.smi

> <i_m_source_file_index>
8

> <i_lp_mmshare_version>
53161

> <i_f3d_flags>
0

> <s_epik_input>
W2NIXTFbY0hdW2NIXW5bY0hdYzEtYzJbY0hdYyhbY0hdW2NIXVtjSF0yKVtDQEBdMyhDKD1PKU4oW0NIM10pQyg9TjMpW05IMl0pYzRbY0hdW2NIXWMoT1tDSDNdKWMoW2NIXTQpW0NIXTVbQ0gyXVtDSDJdW0NIMl1bQ0gyXTU=

> <s_epik_cmdline>
J2VwaWtfcHl0aG9uJywgJy1waHQnLCAnMC4wJywgJy1waCcsICc3LjQnLCAnLXRuJywgJzgnLCAnLW1hJywgJzUwMCcsICctaW1hZScsICc8aW5maWxlLm1hZT4nLCAnLW9tYWUnLCAnPG91dGZpbGUubWFlPic=

> <r_lp_tautomer_probability>
1

> <r_epik_Ionization_Penalty>
0.779

> <r_epik_Ionization_Penalty_Charging>
0

> <r_epik_Ionization_Penalty_Neutral>
0.779

> <r_epik_State_Penalty>
-0

> <r_epik_Charging_Adjusted_Penalty>
0

> <i_epik_Tot_Q>
0

> <i_epik_Tot_abs_Q>
0

> <s_epik_Chemistry_Notes>
This compound has an imine and may undergo hydrolysis.

> <s_lp_Force_Field>
S-OPLS

> <r_lp_Energy>
65.8506

> <b_lp_Chiralities_Consistent>
1

> <s_lp_Variant>
lig_35_L-1

> <s_i_glide_gridfile>
glide-grid_3IN4-BACE_P2

> <i_i_glide_lignum>
8

> <i_i_glide_rotatable_bonds>
5

> <r_i_docking_score>
-7.08904

> <r_i_glide_ligand_efficiency>
-0.21482

> <r_i_glide_ligand_efficiency_sa>
-0.689041

> <r_i_glide_ligand_efficiency_ln>
-1.57657

> <r_i_glide_gscore>
-7.08904

> <r_i_glide_lipo>
-2.40311

> <r_i_glide_hbond>
-0.916696

> <r_i_glide_metal>
-0

> <r_i_glide_rewards>
-0.405431

> <r_i_glide_evdw>
-44.112

> <r_i_glide_ecoul>
-10.238

> <r_i_glide_erotb>
0.514433

> <r_i_glide_esite>
-0.136933

> <r_i_glide_emodel>
-72.8282

> <r_i_glide_energy>
-54.35

> <r_i_glide_einternal>
7.72871

> <i_i_glide_confnum>
210

> <i_i_glide_posenum>
302

> <r_i_glide_eff_state_penalty>
-0

> <r_i_glide_rmsd>
0.0893844

> <s_glide_core_constrain_type>
snapped_core_restrain
$$$$