lig_CHEMBL3265034
                    3D
 Schrodinger Suite 2021-1.
 53 58  0  0  1  0            999 V2000
    1.3149    5.2231    8.2224 H   0  0  0  0  0  0
    1.0265    4.7021    9.1244 C   0  0  0  0  0  0
   -0.2083    4.7935    9.5622 N   0  0  0  0  0  0
   -0.2430    4.0568   10.7012 N   0  0  0  0  0  0
   -1.0911    3.9980   11.2458 H   0  0  0  0  0  0
    0.9620    3.4582   11.0173 C   0  0  0  0  0  0
    1.3846    2.6129   12.0572 C   0  0  0  0  0  0
    0.6848    2.3273   12.8305 H   0  0  0  0  0  0
    2.7184    2.1476   12.0929 C   0  0  0  0  0  0
    3.1830    1.2460   13.1673 C   0  0  0  0  0  0
    4.4659    1.3229   13.6522 C   0  0  0  0  0  0
    5.2165    2.0289   13.3139 H   0  0  0  0  0  0
    4.7879    0.5112   14.6896 N   0  0  0  0  0  0
    3.8618   -0.4063   15.2369 C   0  0  0  0  0  0
    4.4028   -1.0451   16.2735 N   0  0  0  0  0  0
    5.6666   -0.4970   16.4323 C   0  0  0  0  0  0
    6.2948   -0.8064   17.2525 H   0  0  0  0  0  0
    5.9396    0.4050   15.4408 C   0  0  0  0  0  0
    6.8017    1.0170   15.2182 H   0  0  0  0  0  0
    2.5725   -0.4362   14.6387 C   0  0  0  0  0  0
    1.6475   -1.3302   15.2006 N   0  0  0  0  0  0
    2.0586   -1.9003   15.9295 H   0  0  0  0  0  0
    0.2757   -1.5470   15.0010 C   0  0  0  0  0  0
   -0.5459   -0.8076   14.1186 C   0  0  0  0  0  0
   -0.1561   -0.0065   13.5137 H   0  0  0  0  0  0
   -1.9219   -1.0952   14.0165 C   0  0  0  0  0  0
   -2.5272   -0.5106   13.3404 H   0  0  0  0  0  0
   -2.4967   -2.1243   14.7913 C   0  0  0  0  0  0
   -3.9880   -2.4092   14.7062 C   0  0  0  0  0  0
   -4.3981   -1.7861   13.9135 H   0  0  0  0  0  0
   -4.2982   -3.8676   14.3307 C   0  0  0  0  0  0
   -3.8764   -4.0970   13.3528 H   0  0  0  0  0  0
   -3.8380   -4.5524   15.0433 H   0  0  0  0  0  0
   -5.8162   -4.1112   14.3266 C   0  0  0  0  0  0
   -6.3107   -3.5301   13.5459 H   0  0  0  0  0  0
   -6.0227   -5.1620   14.1220 H   0  0  0  0  0  0
   -6.3586   -3.7805   15.6002 O   0  0  0  0  0  0
   -6.2038   -2.4063   15.9371 C   0  0  0  0  0  0
   -6.7253   -1.7885   15.2060 H   0  0  0  0  0  0
   -6.6773   -2.2195   16.9012 H   0  0  0  0  0  0
   -4.7110   -2.0460   16.0116 C   0  0  0  0  0  0
   -4.2630   -2.5797   16.8511 H   0  0  0  0  0  0
   -4.5924   -0.9831   16.2235 H   0  0  0  0  0  0
   -1.6768   -2.8634   15.6697 C   0  0  0  0  0  0
   -2.0902   -3.6438   16.2919 H   0  0  0  0  0  0
   -0.3041   -2.5764   15.7685 C   0  0  0  0  0  0
    0.3021   -3.1477   16.4586 H   0  0  0  0  0  0
    2.2503    0.3517   13.6517 N   0  0  0  0  0  0
    3.6026    2.5805   11.0716 C   0  0  0  0  0  0
    4.6280    2.2437   11.0655 H   0  0  0  0  0  0
    3.1701    3.4303   10.0323 C   0  0  0  0  0  0
    3.8683    3.7334    9.2663 H   0  0  0  0  0  0
    1.8331    3.8812    9.9799 C   0  0  0  0  0  0
  1  2  1  0  0  0
  2 53  1  0  0  0
  2  3  2  0  0  0
  3  4  1  0  0  0
  4  5  1  0  0  0
  4  6  1  0  0  0
  6 53  2  0  0  0
  6  7  1  0  0  0
  7  8  1  0  0  0
  7  9  2  0  0  0
  9 10  1  0  0  0
  9 49  1  0  0  0
 10 48  1  0  0  0
 10 11  2  0  0  0
 11 12  1  0  0  0
 11 13  1  0  0  0
 13 18  1  0  0  0
 13 14  1  0  0  0
 14 15  2  0  0  0
 14 20  1  0  0  0
 15 16  1  0  0  0
 16 17  1  0  0  0
 16 18  2  0  0  0
 18 19  1  0  0  0
 20 21  1  0  0  0
 20 48  2  0  0  0
 21 22  1  0  0  0
 21 23  1  0  0  0
 23 46  1  0  0  0
 23 24  2  0  0  0
 24 25  1  0  0  0
 24 26  1  0  0  0
 26 27  1  0  0  0
 26 28  2  0  0  0
 28 29  1  0  0  0
 28 44  1  0  0  0
 29 41  1  0  0  0
 29 30  1  0  0  0
 29 31  1  0  0  0
 31 32  1  0  0  0
 31 33  1  0  0  0
 31 34  1  0  0  0
 34 35  1  0  0  0
 34 36  1  0  0  0
 34 37  1  0  0  0
 37 38  1  0  0  0
 38 39  1  0  0  0
 38 40  1  0  0  0
 38 41  1  0  0  0
 41 42  1  0  0  0
 41 43  1  0  0  0
 44 45  1  0  0  0
 44 46  2  0  0  0
 46 47  1  0  0  0
 49 50  1  0  0  0
 49 51  2  0  0  0
 51 52  1  0  0  0
 51 53  1  0  0  0
M  END
> <s_m_source_file>
ligprep_syk.smi

> <i_m_source_file_index>
41

> <i_lp_mmshare_version>
53161

> <i_f3d_flags>
0

> <s_epik_input>
W25IXTFuW2NIXWMoYzEyKVtjSF1bY0hdYyhbY0hdMiktYyhbY0hdMyluYyhjKG4zNCluW2NIXVtjSF00KVtOSF1jNVtjSF1bY0hdYyhbY0hdW2NIXTUpW0NIXTZbQ0gyXVtDSDJdT1tDSDJdW0NIMl02

> <s_epik_cmdline>
J2VwaWtfcHl0aG9uJywgJy1waHQnLCAnMC4wJywgJy1waCcsICc3LjQnLCAnLXRuJywgJzgnLCAnLW1hJywgJzUwMCcsICctaW1hZScsICc8aW5maWxlLm1hZT4nLCAnLW9tYWUnLCAnPG91dGZpbGUubWFlPic=

> <r_lp_tautomer_probability>
1

> <r_epik_Ionization_Penalty>
0.0009

> <r_epik_Ionization_Penalty_Charging>
0.0009

> <r_epik_Ionization_Penalty_Neutral>
0

> <r_epik_State_Penalty>
-0

> <r_epik_Charging_Adjusted_Penalty>
0.000851558

> <i_epik_Tot_Q>
0

> <i_epik_Tot_abs_Q>
0

> <s_lp_Force_Field>
S-OPLS

> <r_lp_Energy>
39.6429

> <b_lp_Chiralities_Consistent>
1

> <s_lp_Variant>
lig_CHEMBL3265034-1

> <s_i_glide_gridfile>
glide-grid_4PV0-SYK

> <i_i_glide_lignum>
42

> <i_i_glide_rotatable_bonds>
4

> <r_i_docking_score>
-7.64327

> <r_i_glide_ligand_efficiency>
-0.246557

> <r_i_glide_ligand_efficiency_sa>
-0.77453

> <r_i_glide_ligand_efficiency_ln>
-1.72379

> <r_i_glide_gscore>
-7.64327

> <r_i_glide_lipo>
-2.84028

> <r_i_glide_hbond>
-0.271922

> <r_i_glide_metal>
-0

> <r_i_glide_rewards>
-2.03967

> <r_i_glide_evdw>
-47.6174

> <r_i_glide_ecoul>
-3.81486

> <r_i_glide_erotb>
0.467705

> <r_i_glide_esite>
-0.00601156

> <r_i_glide_emodel>
-74.3486

> <r_i_glide_energy>
-51.4322

> <r_i_glide_einternal>
0.119777

> <i_i_glide_confnum>
8

> <i_i_glide_posenum>
13

> <r_i_glide_eff_state_penalty>
-0

> <r_i_glide_rmsd>
0.0938225

> <s_glide_core_constrain_type>
snapped_core_restrain
$$$$