lig_CHEMBL3265010
                    3D
 Schrodinger Suite 2021-1.
 52 55  0  0  1  0            999 V2000
    6.2882   -0.8073   17.2495 H   0  0  0  0  0  0
    5.6639   -0.4970   16.4288 C   0  0  0  0  0  0
    5.9211    0.4080   15.4396 C   0  0  0  0  0  0
    6.7825    1.0301   15.2184 H   0  0  0  0  0  0
    4.7610    0.5205   14.6915 N   0  0  0  0  0  0
    3.8480   -0.4037   15.2393 C   0  0  0  0  0  0
    4.3974   -1.0428   16.2696 N   0  0  0  0  0  0
    2.5520   -0.4387   14.6481 C   0  0  0  0  0  0
    1.6248   -1.3444   15.1885 N   0  0  0  0  0  0
    2.0297   -1.9379   15.9026 H   0  0  0  0  0  0
    0.2465   -1.5455   14.9894 C   0  0  0  0  0  0
   -0.3556   -2.5698   15.7430 C   0  0  0  0  0  0
    0.2269   -3.1641   16.4345 H   0  0  0  0  0  0
   -1.7362   -2.8201   15.6360 C   0  0  0  0  0  0
   -2.1863   -3.6096   16.2328 H   0  0  0  0  0  0
   -2.5270   -2.0581   14.7530 C   0  0  0  0  0  0
   -3.8687   -2.3147   14.6637 O   0  0  0  0  0  0
   -4.2180   -3.1214   13.5514 C   0  0  0  0  0  0
   -5.2965   -3.2846   13.5468 H   0  0  0  0  0  0
   -3.9432   -2.6572   12.6028 H   0  0  0  0  0  0
   -3.7351   -4.0965   13.6150 H   0  0  0  0  0  0
   -1.9469   -1.0309   13.9803 C   0  0  0  0  0  0
   -2.7808   -0.3098   13.1481 O   0  0  0  0  0  0
   -2.1938    0.6566   12.2898 C   0  0  0  0  0  0
   -2.9735    1.1049   11.6790 H   0  0  0  0  0  0
   -1.7246    1.4528   12.8643 H   0  0  0  0  0  0
   -1.4636    0.2090   11.6172 H   0  0  0  0  0  0
   -0.5599   -0.7816   14.1104 C   0  0  0  0  0  0
   -0.1216    0.0111   13.5361 H   0  0  0  0  0  0
    2.2266    0.3640   13.6654 N   0  0  0  0  0  0
    3.1497    1.2679   13.1834 C   0  0  0  0  0  0
    2.6795    2.1862   12.1156 C   0  0  0  0  0  0
    3.5745    2.7022   11.1504 C   0  0  0  0  0  0
    4.6202    2.4226   11.1732 H   0  0  0  0  0  0
    3.1374    3.5639   10.1249 C   0  0  0  0  0  0
    3.8616    3.9108    9.4034 H   0  0  0  0  0  0
    1.7789    3.9280   10.0252 C   0  0  0  0  0  0
    1.3032    4.7302    9.0145 O   0  0  0  0  0  0
    2.1251    5.8066    8.5888 C   0  0  0  0  0  0
    1.5622    6.3944    7.8667 H   0  0  0  0  0  0
    2.3865    6.4636    9.4260 H   0  0  0  0  0  0
    3.0314    5.4614    8.0931 H   0  0  0  0  0  0
    0.8676    3.4191   10.9757 C   0  0  0  0  0  0
   -0.5925    3.7325   10.8494 C   0  0  0  0  0  0
   -1.1810    3.6788    9.7696 O   0  0  0  0  0  0
   -1.2122    4.1119   11.9753 N   0  0  0  0  0  0
   -0.6623    4.2518   12.8180 H   0  0  0  0  0  0
   -2.1849    4.3748   11.9503 H   0  0  0  0  0  0
    1.3205    2.5697   12.0174 C   0  0  0  0  0  0
    0.6102    2.2004   12.7418 H   0  0  0  0  0  0
    4.4411    1.3360   13.6621 C   0  0  0  0  0  0
    5.1884    2.0468   13.3247 H   0  0  0  0  0  0
  1  2  1  0  0  0
  2  7  1  0  0  0
  2  3  2  0  0  0
  3  4  1  0  0  0
  3  5  1  0  0  0
  5 51  1  0  0  0
  5  6  1  0  0  0
  6  7  2  0  0  0
  6  8  1  0  0  0
  8  9  1  0  0  0
  8 30  2  0  0  0
  9 10  1  0  0  0
  9 11  1  0  0  0
 11 28  1  0  0  0
 11 12  2  0  0  0
 12 13  1  0  0  0
 12 14  1  0  0  0
 14 15  1  0  0  0
 14 16  2  0  0  0
 16 17  1  0  0  0
 16 22  1  0  0  0
 17 18  1  0  0  0
 18 19  1  0  0  0
 18 20  1  0  0  0
 18 21  1  0  0  0
 22 23  1  0  0  0
 22 28  2  0  0  0
 23 24  1  0  0  0
 24 25  1  0  0  0
 24 26  1  0  0  0
 24 27  1  0  0  0
 28 29  1  0  0  0
 30 31  1  0  0  0
 31 32  1  0  0  0
 31 51  2  0  0  0
 32 49  1  0  0  0
 32 33  2  0  0  0
 33 34  1  0  0  0
 33 35  1  0  0  0
 35 36  1  0  0  0
 35 37  2  0  0  0
 37 38  1  0  0  0
 37 43  1  0  0  0
 38 39  1  0  0  0
 39 40  1  0  0  0
 39 41  1  0  0  0
 39 42  1  0  0  0
 43 44  1  0  0  0
 43 49  2  0  0  0
 44 45  2  0  0  0
 44 46  1  0  0  0
 46 47  1  0  0  0
 46 48  1  0  0  0
 49 50  1  0  0  0
 51 52  1  0  0  0
M  END
> <s_m_source_file>
ligprep_syk.smi

> <i_m_source_file_index>
17

> <i_lp_mmshare_version>
53161

> <i_f3d_flags>
0

> <s_epik_input>
W0NIM11PYyhbY0hdMSljKE9bQ0gzXSlbY0hdW2NIXWMxW05IXWMoYyhuMjMpbltjSF1bY0hdMiluYyhbY0hdMyktYzRbY0hdW2NIXWMoT1tDSDNdKWMoW2NIXTQpQyg9TylbTkgyXQ==

> <s_epik_cmdline>
J2VwaWtfcHl0aG9uJywgJy1waHQnLCAnMC4wJywgJy1waCcsICc3LjQnLCAnLXRuJywgJzgnLCAnLW1hJywgJzUwMCcsICctaW1hZScsICc8aW5maWxlLm1hZT4nLCAnLW9tYWUnLCAnPG91dGZpbGUubWFlPic=

> <r_lp_tautomer_probability>
1

> <r_epik_Ionization_Penalty>
0.0014

> <r_epik_Ionization_Penalty_Charging>
0.0014

> <r_epik_Ionization_Penalty_Neutral>
0

> <r_epik_State_Penalty>
-0

> <r_epik_Charging_Adjusted_Penalty>
0.00136682

> <i_epik_Tot_Q>
0

> <i_epik_Tot_abs_Q>
0

> <s_lp_Force_Field>
S-OPLS

> <r_lp_Energy>
46.6208

> <b_lp_Chiralities_Consistent>
1

> <s_lp_Variant>
lig_CHEMBL3265010-1

> <s_i_glide_gridfile>
glide-grid_4PV0-SYK

> <i_i_glide_lignum>
17

> <i_i_glide_rotatable_bonds>
7

> <r_i_docking_score>
-8.58021

> <r_i_glide_ligand_efficiency>
-0.276781

> <r_i_glide_ligand_efficiency_sa>
-0.869475

> <r_i_glide_ligand_efficiency_ln>
-1.9351

> <r_i_glide_gscore>
-8.58021

> <r_i_glide_lipo>
-2.86137

> <r_i_glide_hbond>
-0.598674

> <r_i_glide_metal>
-0

> <r_i_glide_rewards>
-1.97166

> <r_i_glide_evdw>
-47.5504

> <r_i_glide_ecoul>
-10.0703

> <r_i_glide_erotb>
0.787175

> <r_i_glide_esite>
-0.0476232

> <r_i_glide_emodel>
-84.8721

> <r_i_glide_energy>
-57.6207

> <r_i_glide_einternal>
2.90065

> <i_i_glide_confnum>
1

> <i_i_glide_posenum>
1

> <r_i_glide_eff_state_penalty>
-0

> <r_i_glide_rmsd>
0.0871174

> <s_glide_core_constrain_type>
snapped_core_restrain
$$$$