lig_CAT-13g
                    3D
 Schrodinger Suite 2021-1.
 51 54  0  0  1  0            999 V2000
   29.6698    9.3151   21.7982 H   0  0  0  0  0  0
   29.1734   10.1787   21.3882 C   0  0  0  0  0  0
   27.8456   10.0590   20.9365 C   0  0  0  0  0  0
   27.3200    9.1289   21.0646 H   0  0  0  0  0  0
   27.2005   11.1452   20.3220 C   0  0  0  0  0  0
   25.7991   11.0735   19.8835 C   0  0  0  0  0  0
   24.7543   10.9439   20.8231 C   0  0  0  0  0  0
   25.0152   10.8730   21.8639 H   0  0  0  0  0  0
   23.3895   10.9668   20.4408 C   0  0  0  0  0  0
   22.2878   10.9539   21.5329 C   0  0  2  0  0  0
   20.8077   10.8626   21.0046 C   0  0  0  0  0  0
   20.7039   11.5428   20.1581 H   0  0  0  0  0  0
   20.4215    9.4330   20.5478 C   0  0  0  0  0  0
   20.5104    8.7324   21.3810 H   0  0  0  0  0  0
   21.1340    9.0780   19.8010 H   0  0  0  0  0  0
   18.9871    9.3318   19.9974 C   0  0  0  0  0  0
   18.7537    8.2858   19.8019 H   0  0  0  0  0  0
   18.9229    9.8597   19.0460 H   0  0  0  0  0  0
   17.9533    9.8876   20.9863 C   0  0  0  0  0  0
   17.9150    9.2603   21.8738 H   0  0  0  0  0  0
   16.9584    9.8585   20.5445 H   0  0  0  0  0  0
   18.3063   11.3180   21.3995 C   0  0  0  0  0  0
   17.5816   11.6831   22.1273 H   0  0  0  0  0  0
   18.2417   11.9833   20.5383 H   0  0  0  0  0  0
   19.7169   11.3763   22.0011 C   0  0  0  0  0  0
   19.8982   12.4165   22.2853 H   0  0  0  0  0  0
   19.7502   10.7881   22.9218 H   0  0  0  0  0  0
   22.5164   12.1639   22.4592 C   0  0  0  0  0  0
   22.4777   13.3429   22.0929 O   0  0  0  0  0  0
   22.7566   11.7280   23.6972 N   0  0  0  0  0  0
   23.0810   12.5244   24.8777 C   0  0  0  0  0  0
   24.1358   12.4015   25.1330 H   0  0  0  0  0  0
   22.9066   13.5894   24.7051 H   0  0  0  0  0  0
   22.4737   12.2256   25.7361 H   0  0  0  0  0  0
   22.7353   10.3548   23.6638 C   0  0  0  0  0  0
   22.9320    9.6590   24.8372 N   0  0  0  0  0  0
   22.9852    8.6490   24.8640 H   0  0  0  0  0  0
   22.5254    9.8738   22.4942 N   0  0  0  0  0  0
   23.0950   11.0621   19.0569 C   0  0  0  0  0  0
   22.0864   11.0657   18.6854 H   0  0  0  0  0  0
   24.1265   11.1768   18.1059 C   0  0  0  0  0  0
   23.8861   11.2637   17.0569 H   0  0  0  0  0  0
   25.4704   11.2008   18.5194 C   0  0  0  0  0  0
   26.2529   11.3223   17.7840 H   0  0  0  0  0  0
   27.8925   12.3717   20.2040 C   0  0  0  0  0  0
   27.4038   13.2280   19.7546 H   0  0  0  0  0  0
   29.2038   12.5094   20.6940 C   0  0  0  0  0  0
   30.0055   14.0340   20.5897 Cl  0  0  0  0  0  0
   29.8508   11.4060   21.2825 C   0  0  0  0  0  0
   30.8602   11.5009   21.6526 H   0  0  0  0  0  0
   23.0255   10.0572   25.7614 H   0  0  0  0  0  0
  1  2  1  0  0  0
  2 49  1  0  0  0
  2  3  2  0  0  0
  3  4  1  0  0  0
  3  5  1  0  0  0
  5  6  1  0  0  0
  5 45  2  0  0  0
  6 43  1  0  0  0
  6  7  2  0  0  0
  7  8  1  0  0  0
  7  9  1  0  0  0
  9 39  2  0  0  0
  9 10  1  0  0  0
 10 38  1  0  0  0
 10 28  1  0  0  0
 10 11  1  0  0  0
 11 25  1  0  0  0
 11 12  1  0  0  0
 11 13  1  0  0  0
 13 14  1  0  0  0
 13 15  1  0  0  0
 13 16  1  0  0  0
 16 17  1  0  0  0
 16 18  1  0  0  0
 16 19  1  0  0  0
 19 20  1  0  0  0
 19 21  1  0  0  0
 19 22  1  0  0  0
 22 23  1  0  0  0
 22 24  1  0  0  0
 22 25  1  0  0  0
 25 26  1  0  0  0
 25 27  1  0  0  0
 28 29  2  0  0  0
 28 30  1  0  0  0
 30 31  1  0  0  0
 30 35  1  0  0  0
 31 32  1  0  0  0
 31 33  1  0  0  0
 31 34  1  0  0  0
 35 36  1  0  0  0
 35 38  2  0  0  0
 36 37  1  0  0  0
 36 51  1  0  0  0
 39 40  1  0  0  0
 39 41  1  0  0  0
 41 42  1  0  0  0
 41 43  2  0  0  0
 43 44  1  0  0  0
 45 46  1  0  0  0
 45 47  1  0  0  0
 47 48  1  0  0  0
 47 49  2  0  0  0
 49 50  1  0  0  0
M  END
> <s_m_source_file>
ligprep_bace.smi

> <i_m_source_file_index>
7

> <i_lp_mmshare_version>
53161

> <i_f3d_flags>
0

> <s_epik_input>
W2NIXTFjKENsKVtjSF1bY0hdW2NIXWMxLWMyW2NIXWMoW2NIXVtjSF1bY0hdMilbQ0BAXTMoQyg9TylOKFtDSDNdKUMoPU4zKVtOSDJdKVtDSF00W0NIMl1bQ0gyXVtDSDJdW0NIMl1bQ0gyXTQ=

> <s_epik_cmdline>
J2VwaWtfcHl0aG9uJywgJy1waHQnLCAnMC4wJywgJy1waCcsICc3LjQnLCAnLXRuJywgJzgnLCAnLW1hJywgJzUwMCcsICctaW1hZScsICc8aW5maWxlLm1hZT4nLCAnLW9tYWUnLCAnPG91dGZpbGUubWFlPic=

> <r_lp_tautomer_probability>
1

> <r_epik_Ionization_Penalty>
1.3514

> <r_epik_Ionization_Penalty_Charging>
0

> <r_epik_Ionization_Penalty_Neutral>
1.3514

> <r_epik_State_Penalty>
-0

> <r_epik_Charging_Adjusted_Penalty>
0

> <i_epik_Tot_Q>
0

> <i_epik_Tot_abs_Q>
0

> <s_epik_Chemistry_Notes>
This compound has an imine and may undergo hydrolysis.

> <s_lp_Force_Field>
S-OPLS

> <r_lp_Energy>
37.334

> <b_lp_Chiralities_Consistent>
1

> <s_lp_Variant>
lig_CAT-13g-1

> <s_i_glide_gridfile>
glide-grid_4DJW-BACE

> <i_i_glide_lignum>
7

> <i_i_glide_rotatable_bonds>
3

> <r_i_docking_score>
-5.68806

> <r_i_glide_ligand_efficiency>
-0.210669

> <r_i_glide_ligand_efficiency_sa>
-0.632007

> <r_i_glide_ligand_efficiency_ln>
-1.32409

> <r_i_glide_gscore>
-5.68806

> <r_i_glide_lipo>
-2.63561

> <r_i_glide_hbond>
-0.0796672

> <r_i_glide_metal>
-0

> <r_i_glide_rewards>
-1.02253

> <r_i_glide_evdw>
-40.3505

> <r_i_glide_ecoul>
-1.48628

> <r_i_glide_erotb>
0.399378

> <r_i_glide_esite>
-0.109165

> <r_i_glide_emodel>
-49.2723

> <r_i_glide_energy>
-41.8368

> <r_i_glide_einternal>
7.6974

> <i_i_glide_confnum>
61

> <i_i_glide_posenum>
47

> <r_i_glide_eff_state_penalty>
-0

> <r_i_glide_rmsd>
0.0981761

> <s_glide_core_constrain_type>
snapped_core_restrain
$$$$