lig_23482
                    3D
 Schrodinger Suite 2021-1.
 50 52  0  0  1  0            999 V2000
   44.4894    8.8949   -0.1313 H   0  0  0  0  0  0
   45.2567    9.5151    0.3084 C   0  0  0  0  0  0
   44.9853   10.8653    0.6014 C   0  0  0  0  0  0
   45.9805   11.6938    1.1660 C   0  0  0  0  0  0
   47.2526   11.1285    1.4138 C   0  0  0  0  0  0
   47.5348    9.7702    1.1696 C   0  0  0  0  0  0
   46.5164    8.9582    0.6126 C   0  0  0  0  0  0
   46.6848    7.9213    0.3725 H   0  0  0  0  0  0
   48.8248    9.2997    1.4823 N   0  0  0  0  0  0
   49.4254    9.9609    1.9596 H   0  0  0  0  0  0
   49.0354    7.9022    1.8484 C   0  0  0  0  0  0
   50.4507    7.4410    1.4715 C   0  0  0  0  0  0
   50.6706    5.9662    1.8637 C   0  0  0  0  0  0
   50.3941    5.7375    3.2972 N   0  0  2  0  0  0
   49.0759    6.2259    3.7605 C   0  0  0  0  0  0
   48.8261    7.6886    3.3547 C   0  0  0  0  0  0
   49.4918    8.3436    3.9143 H   0  0  0  0  0  0
   47.8102    7.9748    3.6295 H   0  0  0  0  0  0
   48.2970    5.5971    3.3209 H   0  0  0  0  0  0
   48.9804    6.1093    4.8399 H   0  0  0  0  0  0
   51.7193    5.5970    4.4099 S   0  0  0  0  0  0
   51.1796    5.2855    5.7413 O   0  0  0  0  0  0
   52.7276    4.7199    3.7969 O   0  0  0  0  0  0
   52.4164    7.2858    4.4553 C   0  0  0  0  0  0
   53.2351    7.3208    5.1643 H   0  0  0  0  0  0
   52.7915    7.5523    3.4690 H   0  0  0  0  0  0
   51.6323    7.9737    4.7559 H   0  0  0  0  0  0
   50.0073    5.3287    1.2756 H   0  0  0  0  0  0
   51.6853    5.6524    1.6226 H   0  0  0  0  0  0
   50.6063    7.5562    0.3978 H   0  0  0  0  0  0
   51.1926    8.0805    1.9546 H   0  0  0  0  0  0
   48.3469    7.2527    1.3117 H   0  0  0  0  0  0
   48.0425   11.7463    1.8117 H   0  0  0  0  0  0
   45.7040   13.0937    1.5008 C   0  0  0  0  0  0
   46.1784   13.8684    2.5303 C   0  0  0  0  0  0
   45.7046   15.2023    2.5558 C   0  0  0  0  0  0
   44.8245   15.4631    1.5407 C   0  0  0  0  0  0
   44.5939   14.0445    0.5288 S   0  0  0  0  0  0
   44.0833   16.6981    1.2103 C   0  0  0  0  0  0
   43.5633   16.8122    0.0841 O   0  0  0  0  0  0
   44.0266   17.6152    2.0628 O   0  5  0  0  0  0
   46.0229   16.0840    3.5153 O   0  0  0  0  0  0
   47.2498   16.7663    3.3534 C   0  0  0  0  0  0
   47.1515   17.5352    2.5852 H   0  0  0  0  0  0
   48.0412   16.0845    3.0437 H   0  0  0  0  0  0
   47.6310   17.4064    4.6867 C   0  0  0  0  0  0
   48.7322   18.0032    4.7157 O   0  0  0  0  0  0
   46.8232   17.2866    5.6481 O   0  5  0  0  0  0
   47.3244   13.2547    3.9155 Br  0  0  0  0  0  0
   44.0017   11.2611    0.3911 H   0  0  0  0  0  0
  1  2  1  0  0  0
  2  7  1  0  0  0
  2  3  2  0  0  0
  3  4  1  0  0  0
  3 50  1  0  0  0
  4  5  2  0  0  0
  4 34  1  0  0  0
  5  6  1  0  0  0
  5 33  1  0  0  0
  6  7  2  0  0  0
  6  9  1  0  0  0
  7  8  1  0  0  0
  9 10  1  0  0  0
  9 11  1  0  0  0
 11 16  1  0  0  0
 11 12  1  0  0  0
 11 32  1  0  0  0
 12 13  1  0  0  0
 12 30  1  0  0  0
 12 31  1  0  0  0
 13 14  1  0  0  0
 13 28  1  0  0  0
 13 29  1  0  0  0
 14 15  1  0  0  0
 14 21  1  0  0  0
 15 16  1  0  0  0
 15 19  1  0  0  0
 15 20  1  0  0  0
 16 17  1  0  0  0
 16 18  1  0  0  0
 21 22  2  0  0  0
 21 23  2  0  0  0
 21 24  1  0  0  0
 24 25  1  0  0  0
 24 26  1  0  0  0
 24 27  1  0  0  0
 34 38  1  0  0  0
 34 35  2  0  0  0
 35 36  1  0  0  0
 35 49  1  0  0  0
 36 37  2  0  0  0
 36 42  1  0  0  0
 37 38  1  0  0  0
 37 39  1  0  0  0
 39 40  2  0  0  0
 39 41  1  0  0  0
 42 43  1  0  0  0
 43 44  1  0  0  0
 43 45  1  0  0  0
 43 46  1  0  0  0
 46 47  2  0  0  0
 46 48  1  0  0  0
M  CHG  2  41  -1  48  -1
M  END
> <s_m_source_file>
ligprep_ptp1b.smi

> <i_m_source_file_index>
19

> <i_lp_mmshare_version>
53161

> <i_f3d_flags>
0

> <s_epik_input>
Tz1DKFtPSF0pW0NIMl1PYyhjKHMxKUMoPU8pW09IXSljKEJyKWMxLWMyW2NIXVtjSF1bY0hdYyhbY0hdMilbTkhdW0NIXTNbQ0gyXVtDSDJdTihbQ0gyXVtDSDJdMylTKD1PKSg9TylbQ0gzXQ==

> <s_epik_cmdline>
J2VwaWtfcHl0aG9uJywgJy1waHQnLCAnMC4wJywgJy1waCcsICc3LjQnLCAnLXRuJywgJzgnLCAnLW1hJywgJzUwMCcsICctaW1hZScsICc8aW5maWxlLm1hZT4nLCAnLW9tYWUnLCAnPG91dGZpbGUubWFlPic=

> <r_lp_tautomer_probability>
1

> <r_epik_Ionization_Penalty>
0.0005

> <r_epik_Ionization_Penalty_Charging>
0.0001

> <r_epik_Ionization_Penalty_Neutral>
0.0004

> <r_epik_State_Penalty>
-0

> <r_epik_Charging_Adjusted_Penalty>
9.21585e-05

> <i_epik_Tot_Q>
-2

> <i_epik_Tot_abs_Q>
2

> <s_lp_Force_Field>
S-OPLS

> <r_lp_Energy>
57.9517

> <b_lp_Chiralities_Consistent>
1

> <s_lp_Variant>
lig_23482-1

> <s_i_glide_gridfile>
glide-grid_2QBS-PTP1B

> <i_i_glide_lignum>
19

> <i_i_glide_rotatable_bonds>
8

> <r_i_docking_score>
-8.58217

> <r_i_glide_ligand_efficiency>
-0.276844

> <r_i_glide_ligand_efficiency_sa>
-0.869673

> <r_i_glide_ligand_efficiency_ln>
-1.93554

> <r_i_glide_gscore>
-8.58217

> <r_i_glide_lipo>
-1.48022

> <r_i_glide_hbond>
-1.29962

> <r_i_glide_metal>
-0

> <r_i_glide_rewards>
-0.0151787

> <r_i_glide_evdw>
-43.7337

> <r_i_glide_ecoul>
-32.8607

> <r_i_glide_erotb>
0.511139

> <r_i_glide_esite>
-0.111604

> <r_i_glide_emodel>
-144.658

> <r_i_glide_energy>
-76.5944

> <r_i_glide_einternal>
0.965503

> <i_i_glide_confnum>
1

> <i_i_glide_posenum>
3

> <r_i_glide_eff_state_penalty>
-0

> <r_i_glide_rmsd>
0.0932816

> <s_glide_core_constrain_type>
snapped_core_restrain
$$$$