lig_CAT-13k
                    3D
 Schrodinger Suite 2021-1.
 44 47  0  0  1  0            999 V2000
   17.2495   10.5910   19.4955 H   0  0  0  0  0  0
   18.2558   10.6053   19.8799 C   0  0  0  0  0  0
   18.8032   11.8189   20.0814 N   0  0  0  0  0  0
   20.0681   11.8734   20.5497 C   0  0  0  0  0  0
   20.4571   12.8715   20.6722 H   0  0  0  0  0  0
   20.8444   10.7298   20.8598 C   0  0  0  0  0  0
   22.2764   10.8268   21.4277 C   0  0  1  0  0  0
   23.3857   10.9493   20.3659 C   0  0  0  0  0  0
   23.0869   11.1092   18.9930 C   0  0  0  0  0  0
   22.0676   11.1287   18.6374 H   0  0  0  0  0  0
   24.1221   11.2600   18.0522 C   0  0  0  0  0  0
   23.8829   11.3935   17.0068 H   0  0  0  0  0  0
   25.4658   11.2602   18.4693 C   0  0  0  0  0  0
   26.2455   11.4039   17.7364 H   0  0  0  0  0  0
   25.7946   11.0826   19.8285 C   0  0  0  0  0  0
   27.1918   11.1403   20.2902 C   0  0  0  0  0  0
   27.9050   12.3558   20.1899 C   0  0  0  0  0  0
   27.4340   13.2153   19.7372 H   0  0  0  0  0  0
   29.2159   12.4684   20.6915 C   0  0  0  0  0  0
   30.0491   13.9761   20.5938 Cl  0  0  0  0  0  0
   29.8391   11.3538   21.2812 C   0  0  0  0  0  0
   30.8512   11.4328   21.6545 H   0  0  0  0  0  0
   29.1444   10.1340   21.3732 C   0  0  0  0  0  0
   29.6249    9.2681   21.8015 H   0  0  0  0  0  0
   27.8248   10.0364   20.8951 C   0  0  0  0  0  0
   27.3003    9.1026   21.0022 H   0  0  0  0  0  0
   24.7474   10.9147   20.7563 C   0  0  0  0  0  0
   24.9980   10.7895   21.8004 H   0  0  0  0  0  0
   22.4115   11.9539   22.4785 C   0  0  0  0  0  0
   22.3728   13.1597   22.2214 O   0  0  0  0  0  0
   22.6174   11.4139   23.6757 N   0  0  0  0  0  0
   22.9762   12.1058   24.9106 C   0  0  0  0  0  0
   24.0624   12.1113   25.0106 H   0  0  0  0  0  0
   22.6318   13.1404   24.8962 H   0  0  0  0  0  0
   22.5432   11.6257   25.7903 H   0  0  0  0  0  0
   22.6796   10.0536   23.5059 C   0  0  0  0  0  0
   22.9056    9.2557   24.6038 N   0  0  0  0  0  0
   22.9906    8.2471   24.5120 H   0  0  0  0  0  0
   22.5304    9.6745   22.2894 N   0  0  0  0  0  0
   20.2555    9.4661   20.6105 C   0  0  0  0  0  0
   20.7926    8.5447   20.7934 H   0  0  0  0  0  0
   18.9384    9.4016   20.1229 C   0  0  0  0  0  0
   18.4677    8.4463   19.9397 H   0  0  0  0  0  0
   22.9995    9.5619   25.5659 H   0  0  0  0  0  0
  1  2  1  0  0  0
  2 42  1  0  0  0
  2  3  2  0  0  0
  3  4  1  0  0  0
  4  5  1  0  0  0
  4  6  2  0  0  0
  6 40  1  0  0  0
  6  7  1  0  0  0
  7 39  1  0  0  0
  7 29  1  0  0  0
  7  8  1  0  0  0
  8 27  1  0  0  0
  8  9  2  0  0  0
  9 10  1  0  0  0
  9 11  1  0  0  0
 11 12  1  0  0  0
 11 13  2  0  0  0
 13 14  1  0  0  0
 13 15  1  0  0  0
 15 16  1  0  0  0
 15 27  2  0  0  0
 16 25  1  0  0  0
 16 17  2  0  0  0
 17 18  1  0  0  0
 17 19  1  0  0  0
 19 20  1  0  0  0
 19 21  2  0  0  0
 21 22  1  0  0  0
 21 23  1  0  0  0
 23 24  1  0  0  0
 23 25  2  0  0  0
 25 26  1  0  0  0
 27 28  1  0  0  0
 29 30  2  0  0  0
 29 31  1  0  0  0
 31 32  1  0  0  0
 31 36  1  0  0  0
 32 33  1  0  0  0
 32 34  1  0  0  0
 32 35  1  0  0  0
 36 37  1  0  0  0
 36 39  2  0  0  0
 37 38  1  0  0  0
 37 44  1  0  0  0
 40 41  1  0  0  0
 40 42  2  0  0  0
 42 43  1  0  0  0
M  END
> <s_m_source_file>
ligprep_bace.smi

> <i_m_source_file_index>
11

> <i_lp_mmshare_version>
53161

> <i_f3d_flags>
0

> <s_epik_input>
W2NIXTFbY0hdW2NIXW5bY0hdYzFbQ0BdMihDKD1PKU4oW0NIM10pQyg9TjIpW05IMl0pYzNbY0hdW2NIXVtjSF1jKFtjSF0zKS1jNFtjSF1jKENsKVtjSF1bY0hdW2NIXTQ=

> <s_epik_cmdline>
J2VwaWtfcHl0aG9uJywgJy1waHQnLCAnMC4wJywgJy1waCcsICc3LjQnLCAnLXRuJywgJzgnLCAnLW1hJywgJzUwMCcsICctaW1hZScsICc8aW5maWxlLm1hZT4nLCAnLW9tYWUnLCAnPG91dGZpbGUubWFlPic=

> <r_lp_tautomer_probability>
1

> <r_epik_Ionization_Penalty>
0.5027

> <r_epik_Ionization_Penalty_Charging>
0

> <r_epik_Ionization_Penalty_Neutral>
0.5027

> <r_epik_State_Penalty>
-0

> <r_epik_Charging_Adjusted_Penalty>
0

> <i_epik_Tot_Q>
0

> <i_epik_Tot_abs_Q>
0

> <s_epik_Chemistry_Notes>
This compound has an imine and may undergo hydrolysis.

> <s_lp_Force_Field>
S-OPLS

> <r_lp_Energy>
49.0789

> <b_lp_Chiralities_Consistent>
1

> <s_lp_Variant>
lig_CAT-13k-1

> <s_i_glide_gridfile>
glide-grid_4DJW-BACE

> <i_i_glide_lignum>
11

> <i_i_glide_rotatable_bonds>
3

> <r_i_docking_score>
-6.26558

> <r_i_glide_ligand_efficiency>
-0.232058

> <r_i_glide_ligand_efficiency_sa>
-0.696175

> <r_i_glide_ligand_efficiency_ln>
-1.45852

> <r_i_glide_gscore>
-6.26558

> <r_i_glide_lipo>
-2.68298

> <r_i_glide_hbond>
-0.163755

> <r_i_glide_metal>
-0

> <r_i_glide_rewards>
-1.13983

> <r_i_glide_evdw>
-43.952

> <r_i_glide_ecoul>
-2.48171

> <r_i_glide_erotb>
0.409035

> <r_i_glide_esite>
-0.11819

> <r_i_glide_emodel>
-59.9143

> <r_i_glide_energy>
-46.4337

> <r_i_glide_einternal>
1.64025

> <i_i_glide_confnum>
16

> <i_i_glide_posenum>
143

> <r_i_glide_eff_state_penalty>
-0

> <r_i_glide_rmsd>
0.0928718

> <s_glide_core_constrain_type>
snapped_core_restrain
$$$$