lig_8b
                    3D
 Schrodinger Suite 2021-1.
 48 51  0  0  1  0            999 V2000
  -39.8028  -13.3513   10.0042 H   0  0  0  0  0  0
  -39.3584  -12.4212    9.6820 C   0  0  0  0  0  0
  -39.3199  -12.1433    8.3082 C   0  0  0  0  0  0
  -39.7335  -12.8568    7.6111 H   0  0  0  0  0  0
  -38.7051  -10.9704    7.8378 C   0  0  0  0  0  0
  -38.6118  -10.7847    6.4554 N   0  0  0  0  0  0
  -39.8249  -10.5680    5.6842 C   0  0  0  0  0  0
  -40.6961  -10.9637    6.2048 H   0  0  0  0  0  0
  -39.9820   -9.4940    5.5936 H   0  0  0  0  0  0
  -39.7021  -11.2127    4.2913 C   0  0  0  0  0  0
  -40.5340  -10.8815    3.6682 H   0  0  0  0  0  0
  -39.7731  -12.2976    4.3702 H   0  0  0  0  0  0
  -38.4208  -10.8556    3.6309 N   0  3  0  0  0  0
  -38.3105  -11.4167    2.2665 C   0  0  0  0  0  0
  -38.2812  -12.5071    2.2914 H   0  0  0  0  0  0
  -39.1607  -11.1124    1.6543 H   0  0  0  0  0  0
  -37.4046  -11.0614    1.7739 H   0  0  0  0  0  0
  -37.2267  -11.1440    4.4685 C   0  0  0  0  0  0
  -36.3249  -10.7999    3.9605 H   0  0  0  0  0  0
  -37.1321  -12.2246    4.5880 H   0  0  0  0  0  0
  -37.3262  -10.4799    5.8550 C   0  0  0  0  0  0
  -37.2007   -9.3998    5.7910 H   0  0  0  0  0  0
  -36.5281  -10.8561    6.4943 H   0  0  0  0  0  0
  -38.1659  -10.0441    8.7601 C   0  0  0  0  0  0
  -37.6989   -9.1347    8.4100 H   0  0  0  0  0  0
  -38.2223  -10.3129   10.1420 C   0  0  0  0  0  0
  -37.7938   -9.5922   10.8234 H   0  0  0  0  0  0
  -38.8180  -11.5077   10.6134 C   0  0  0  0  0  0
  -38.8758  -11.8220   12.0741 C   0  0  0  0  0  0
  -39.5638  -12.8494   12.4858 N   0  0  0  0  0  0
  -39.6212  -13.1780   13.8494 C   0  0  0  0  0  0
  -38.9255  -12.4006   14.8099 C   0  0  0  0  0  0
  -39.0500  -12.6939   16.1874 C   0  0  0  0  0  0
  -38.5463  -12.0897   16.9286 H   0  0  0  0  0  0
  -39.8712  -13.7672   16.5915 C   0  0  0  0  0  0
  -40.1024  -14.0557   17.8900 F   0  0  0  0  0  0
  -40.5278  -14.5597   15.6406 C   0  0  0  0  0  0
  -41.1533  -15.3750   15.9774 H   0  0  0  0  0  0
  -40.4044  -14.2797   14.2717 C   0  0  0  0  0  0
  -41.1447  -15.1674   13.2913 C   0  0  0  0  0  0
  -40.5982  -15.2551   12.3540 H   0  0  0  0  0  0
  -41.2663  -16.1733   13.6936 H   0  0  0  0  0  0
  -42.1383  -14.7650   13.1009 H   0  0  0  0  0  0
  -38.0738  -11.2692   14.3060 C   0  0  0  0  0  0
  -37.3340  -10.6072   15.0333 O   0  0  0  0  0  0
  -38.1584  -11.0378   12.9872 N   0  0  0  0  0  0
  -37.5719  -10.2967   12.6264 H   0  0  0  0  0  0
  -38.4474   -9.8512    3.5288 H   0  0  0  0  0  0
  1  2  1  0  0  0
  2 28  1  0  0  0
  2  3  2  0  0  0
  3  4  1  0  0  0
  3  5  1  0  0  0
  5  6  1  0  0  0
  5 24  2  0  0  0
  6 21  1  0  0  0
  6  7  1  0  0  0
  7  8  1  0  0  0
  7  9  1  0  0  0
  7 10  1  0  0  0
 10 11  1  0  0  0
 10 12  1  0  0  0
 10 13  1  0  0  0
 13 14  1  0  0  0
 13 18  1  0  0  0
 13 48  1  0  0  0
 14 15  1  0  0  0
 14 16  1  0  0  0
 14 17  1  0  0  0
 18 19  1  0  0  0
 18 20  1  0  0  0
 18 21  1  0  0  0
 21 22  1  0  0  0
 21 23  1  0  0  0
 24 25  1  0  0  0
 24 26  1  0  0  0
 26 27  1  0  0  0
 26 28  2  0  0  0
 28 29  1  0  0  0
 29 46  1  0  0  0
 29 30  2  0  0  0
 30 31  1  0  0  0
 31 39  2  0  0  0
 31 32  1  0  0  0
 32 33  2  0  0  0
 32 44  1  0  0  0
 33 34  1  0  0  0
 33 35  1  0  0  0
 35 36  1  0  0  0
 35 37  2  0  0  0
 37 38  1  0  0  0
 37 39  1  0  0  0
 39 40  1  0  0  0
 40 41  1  0  0  0
 40 42  1  0  0  0
 40 43  1  0  0  0
 44 45  2  0  0  0
 44 46  1  0  0  0
 46 47  1  0  0  0
M  CHG  1  13   1
M  END
> <s_m_source_file>
ligprep_tnks2.smi

> <i_m_source_file_index>
23

> <i_lp_mmshare_version>
53161

> <i_f3d_flags>
0

> <s_epik_input>
W0NIMl0xW0NIMl1OKFtDSDNdKVtDSDJdW0NIMl1OMWMyW2NIXVtjSF1jKFtjSF1bY0hdMiktYyhuMylbbkhdYyg9TyljKGMzNClbY0hdYyhGKVtjSF1jNFtDSDNd

> <s_epik_cmdline>
J2VwaWtfcHl0aG9uJywgJy1waHQnLCAnMC4wJywgJy1waCcsICc3LjQnLCAnLXRuJywgJzgnLCAnLW1hJywgJzUwMCcsICctaW1hZScsICc8aW5maWxlLm1hZT4nLCAnLW9tYWUnLCAnPG91dGZpbGUubWFlPic=

> <r_lp_tautomer_probability>
1

> <r_epik_Ionization_Penalty>
0.2398

> <r_epik_Ionization_Penalty_Charging>
0.2397

> <r_epik_Ionization_Penalty_Neutral>
0.0001

> <r_epik_State_Penalty>
-0

> <r_epik_Charging_Adjusted_Penalty>
0.239742

> <i_epik_Tot_Q>
1

> <i_epik_Tot_abs_Q>
1

> <s_lp_Force_Field>
S-OPLS

> <r_lp_Energy>
55.1828

> <b_lp_Chiralities_Consistent>
1

> <s_lp_Variant>
lig_8b-1

> <s_i_glide_gridfile>
glide-grid_4UI5-TNKS2

> <i_i_glide_lignum>
23

> <i_i_glide_rotatable_bonds>
2

> <r_i_docking_score>
-12.3274

> <r_i_glide_ligand_efficiency>
-0.474129

> <r_i_glide_ligand_efficiency_sa>
-1.40461

> <r_i_glide_ligand_efficiency_ln>
-2.89504

> <r_i_glide_gscore>
-12.3274

> <r_i_glide_lipo>
-4.6796

> <r_i_glide_hbond>
-0.815093

> <r_i_glide_metal>
-0

> <r_i_glide_rewards>
-3.197

> <r_i_glide_evdw>
-50.1109

> <r_i_glide_ecoul>
-8.9419

> <r_i_glide_erotb>
0.214051

> <r_i_glide_esite>
-0.00288457

> <r_i_glide_emodel>
-91.8021

> <r_i_glide_energy>
-59.0528

> <r_i_glide_einternal>
3.59391

> <i_i_glide_confnum>
6

> <i_i_glide_posenum>
5

> <r_i_glide_eff_state_penalty>
-0

> <r_i_glide_rmsd>
0.0955097

> <s_glide_core_constrain_type>
snapped_core_restrain
$$$$