lig_26
                    3D
 Schrodinger Suite 2021-1.
 49 53  0  0  1  0            999 V2000
   96.7111   45.9206  267.0624 H   0  0  0  0  0  0
   95.9961   46.7159  267.2138 C   0  0  0  0  0  0
   94.7292   46.4912  266.8136 N   0  0  0  0  0  0
   93.8278   47.4919  266.9655 C   0  0  0  0  0  0
   94.2096   48.7318  267.5651 C   0  0  0  0  0  0
   95.4789   48.9152  268.0135 N   0  0  0  0  0  0
   96.3727   47.9269  267.8175 C   0  0  0  0  0  0
   97.3862   48.1047  268.1433 H   0  0  0  0  0  0
   93.2457   49.7612  267.6878 C   0  0  0  0  0  0
   93.5657   51.0530  268.3049 C   0  0  0  0  0  0
   94.5270   51.9273  267.7575 C   0  0  0  0  0  0
   95.0664   51.6428  266.8664 H   0  0  0  0  0  0
   94.7756   53.1805  268.3500 C   0  0  0  0  0  0
   95.5020   53.8438  267.9049 H   0  0  0  0  0  0
   94.0733   53.5921  269.5001 C   0  0  0  0  0  0
   94.0340   54.7727  270.3030 C   0  0  0  0  0  0
   94.6070   55.6726  270.1394 H   0  0  0  0  0  0
   93.1720   54.5300  271.3344 C   0  0  0  0  0  0
   92.8978   55.1705  272.1556 H   0  0  0  0  0  0
   92.6214   53.2680  271.2028 N   0  0  0  0  0  0
   91.6565   52.6748  272.1083 C   0  0  0  0  0  0
   91.5741   53.2704  273.0170 H   0  0  0  0  0  0
   90.6808   52.6237  271.6268 H   0  0  0  0  0  0
   91.9738   51.6672  272.3805 H   0  0  0  0  0  0
   93.1413   52.6764  270.0652 C   0  0  0  0  0  0
   92.8863   51.4363  269.4729 C   0  0  0  0  0  0
   92.1605   50.7726  269.9196 H   0  0  0  0  0  0
   91.9222   49.5431  267.2561 C   0  0  0  0  0  0
   91.1898   50.3287  267.3779 H   0  0  0  0  0  0
   91.5322   48.3235  266.6834 C   0  0  0  0  0  0
   90.1836   48.1456  266.3430 N   0  0  0  0  0  0
   89.5033   48.6437  266.9048 H   0  0  0  0  0  0
   89.6092   47.3023  265.3754 C   0  0  0  0  0  0
   88.2953   46.7662  265.5467 C   0  0  0  0  0  0
   87.4748   47.0091  266.7881 C   0  0  0  0  0  0
   87.5019   48.0762  267.3963 O   0  0  0  0  0  0
   86.7497   45.9714  267.2143 N   0  0  0  0  0  0
   86.7700   45.0971  266.7019 H   0  0  0  0  0  0
   86.2190   46.0536  268.0683 H   0  0  0  0  0  0
   87.7331   45.9715  264.5195 C   0  0  0  0  0  0
   86.7335   45.5715  264.6163 H   0  0  0  0  0  0
   88.4633   45.6567  263.3640 C   0  0  0  0  0  0
   88.0347   45.0224  262.6025 H   0  0  0  0  0  0
   89.7618   46.1607  263.2137 C   0  0  0  0  0  0
   90.3436   45.9001  262.3469 H   0  0  0  0  0  0
   90.3220   46.9968  264.1947 C   0  0  0  0  0  0
   91.3153   47.3867  264.0274 H   0  0  0  0  0  0
   92.4965   47.3096  266.5335 C   0  0  0  0  0  0
   92.2042   46.3702  266.0957 H   0  0  0  0  0  0
  1  2  1  0  0  0
  2  7  1  0  0  0
  2  3  2  0  0  0
  3  4  1  0  0  0
  4 48  1  0  0  0
  4  5  2  0  0  0
  5  6  1  0  0  0
  5  9  1  0  0  0
  6  7  2  0  0  0
  7  8  1  0  0  0
  9 10  1  0  0  0
  9 28  2  0  0  0
 10 26  1  0  0  0
 10 11  2  0  0  0
 11 12  1  0  0  0
 11 13  1  0  0  0
 13 14  1  0  0  0
 13 15  2  0  0  0
 15 25  1  0  0  0
 15 16  1  0  0  0
 16 17  1  0  0  0
 16 18  2  0  0  0
 18 19  1  0  0  0
 18 20  1  0  0  0
 20 21  1  0  0  0
 20 25  1  0  0  0
 21 22  1  0  0  0
 21 23  1  0  0  0
 21 24  1  0  0  0
 25 26  2  0  0  0
 26 27  1  0  0  0
 28 29  1  0  0  0
 28 30  1  0  0  0
 30 31  1  0  0  0
 30 48  2  0  0  0
 31 32  1  0  0  0
 31 33  1  0  0  0
 33 46  1  0  0  0
 33 34  2  0  0  0
 34 35  1  0  0  0
 34 40  1  0  0  0
 35 36  2  0  0  0
 35 37  1  0  0  0
 37 38  1  0  0  0
 37 39  1  0  0  0
 40 41  1  0  0  0
 40 42  2  0  0  0
 42 43  1  0  0  0
 42 44  1  0  0  0
 44 45  1  0  0  0
 44 46  2  0  0  0
 46 47  1  0  0  0
 48 49  1  0  0  0
M  END
> <s_m_source_file>
ligprep_pfkfb3.smi

> <i_m_source_file_index>
5

> <i_lp_mmshare_version>
53161

> <i_f3d_flags>
0

> <s_epik_input>
W2NIXTFbY0hdbihbQ0gzXSljKGMxMilbY0hdYyhbY0hdW2NIXTIpLWMoYyhjMzQpbltjSF1bY0hdbjMpW2NIXWMoW2NIXTQpW05IXWM1YyhDKD1PKVtOSDJdKVtjSF1bY0hdW2NIXVtjSF01

> <s_epik_cmdline>
J2VwaWtfcHl0aG9uJywgJy1waHQnLCAnMC4wJywgJy1waCcsICc3LjQnLCAnLXRuJywgJzgnLCAnLW1hJywgJzUwMCcsICctaW1hZScsICc8aW5maWxlLm1hZT4nLCAnLW9tYWUnLCAnPG91dGZpbGUubWFlPic=

> <r_lp_tautomer_probability>
1

> <r_epik_Ionization_Penalty>
0

> <r_epik_Ionization_Penalty_Charging>
0

> <r_epik_Ionization_Penalty_Neutral>
0

> <r_epik_State_Penalty>
-0

> <r_epik_Charging_Adjusted_Penalty>
0

> <i_epik_Tot_Q>
0

> <i_epik_Tot_abs_Q>
0

> <s_lp_Force_Field>
S-OPLS

> <r_lp_Energy>
57.1066

> <b_lp_Chiralities_Consistent>
1

> <s_lp_Variant>
lig_26-1

> <s_i_glide_gridfile>
glide-grid_6HVI-PFKFB3

> <i_i_glide_lignum>
5

> <i_i_glide_rotatable_bonds>
4

> <r_i_docking_score>
-11.4831

> <r_i_glide_ligand_efficiency>
-0.38277

> <r_i_glide_ligand_efficiency_sa>
-1.18936

> <r_i_glide_ligand_efficiency_ln>
-2.60909

> <r_i_glide_gscore>
-11.4831

> <r_i_glide_lipo>
-6.00515

> <r_i_glide_hbond>
-0.32

> <r_i_glide_metal>
-0

> <r_i_glide_rewards>
-1.64166

> <r_i_glide_evdw>
-60.7292

> <r_i_glide_ecoul>
-5.57242

> <r_i_glide_erotb>
0.378594

> <r_i_glide_esite>
-0.0225689

> <r_i_glide_emodel>
-108.342

> <r_i_glide_energy>
-66.3017

> <r_i_glide_einternal>
1.3446

> <i_i_glide_confnum>
12

> <i_i_glide_posenum>
3

> <r_i_glide_eff_state_penalty>
-0

> <r_i_glide_rmsd>
0.0810342

> <s_glide_core_constrain_type>
snapped_core_restrain
$$$$