lig_38_L
                    3D
 Schrodinger Suite 2021-1.
 51 54  0  0  1  0            999 V2000
   11.0973   -4.6089   13.7653 H   0  0  0  0  0  0
   10.3659   -4.1620   14.4197 C   0  0  0  0  0  0
    9.8718   -2.9764   14.0030 N   0  0  0  0  0  0
    8.9755   -2.3561   14.7939 C   0  0  0  0  0  0
    8.5878   -1.4142   14.4338 H   0  0  0  0  0  0
    8.5448   -2.8805   16.0249 C   0  0  0  0  0  0
    7.8284   -2.3449   16.6294 H   0  0  0  0  0  0
    9.0726   -4.1141   16.4481 C   0  0  0  0  0  0
    8.7711   -4.5334   17.3963 H   0  0  0  0  0  0
   10.0095   -4.7846   15.6365 C   0  0  0  0  0  0
   10.6255   -6.0465   16.0773 C   0  0  0  0  0  0
   12.0280   -6.1633   16.1498 C   0  0  0  0  0  0
   12.6323   -5.3210   15.8466 H   0  0  0  0  0  0
   12.6576   -7.3211   16.6639 C   0  0  0  0  0  0
   14.1895   -7.3642   16.8015 C   0  0  2  0  0  0
   14.7855   -8.7627   17.0756 C   0  0  0  0  0  0
   14.9165   -9.6756   16.0039 C   0  0  0  0  0  0
   14.5618   -9.4097   15.0166 H   0  0  0  0  0  0
   15.5450  -10.9186   16.1836 C   0  0  0  0  0  0
   15.6361  -11.5669   15.3243 H   0  0  0  0  0  0
   16.0697  -11.2808   17.4462 C   0  0  0  0  0  0
   16.7389  -12.4643   17.6634 O   0  0  0  0  0  0
   17.2860  -13.1319   16.5352 C   0  0  0  0  0  0
   17.9350  -13.9339   16.8808 H   0  0  0  0  0  0
   16.5110  -13.5813   15.9169 H   0  0  0  0  0  0
   17.8932  -12.4572   15.9269 H   0  0  0  0  0  0
   15.9042  -10.3930   18.5392 C   0  0  0  0  0  0
   16.4557  -10.7473   19.9168 C   0  0  0  0  0  0
   16.2958   -9.7550   20.7988 F   0  0  0  0  0  0
   17.7576  -11.0322   19.8473 F   0  0  0  0  0  0
   15.8024  -11.8088   20.3778 F   0  0  0  0  0  0
   15.2492   -9.1577   18.3508 C   0  0  0  0  0  0
   15.1376   -8.5048   19.2010 H   0  0  0  0  0  0
   14.6561   -6.2899   17.8109 C   0  0  0  0  0  0
   14.2368   -6.1884   18.9660 O   0  0  0  0  0  0
   15.5384   -5.4937   17.2189 N   0  0  0  0  0  0
   16.1429   -4.2779   17.7505 C   0  0  0  0  0  0
   17.2257   -4.3000   17.6268 H   0  0  0  0  0  0
   15.7540   -3.4083   17.2223 H   0  0  0  0  0  0
   15.9346   -4.1554   18.8143 H   0  0  0  0  0  0
   15.6212   -5.8805   15.9036 C   0  0  0  0  0  0
   16.4901   -5.2110   15.0730 N   0  0  0  0  0  0
   16.5064   -5.3897   14.0695 H   0  0  0  0  0  0
   14.8400   -6.8528   15.6021 N   0  0  0  0  0  0
   11.8462   -8.4008   17.0798 C   0  0  0  0  0  0
   12.2784   -9.3053   17.4787 H   0  0  0  0  0  0
   10.4464   -8.3157   16.9749 C   0  0  0  0  0  0
    9.8390   -9.1490   17.2906 H   0  0  0  0  0  0
    9.8390   -7.1417   16.4937 C   0  0  0  0  0  0
    8.7594   -7.0859   16.4472 H   0  0  0  0  0  0
   16.9940   -4.3616   15.3015 H   0  0  0  0  0  0
  1  2  1  0  0  0
  2 10  1  0  0  0
  2  3  2  0  0  0
  3  4  1  0  0  0
  4  5  1  0  0  0
  4  6  2  0  0  0
  6  7  1  0  0  0
  6  8  1  0  0  0
  8  9  1  0  0  0
  8 10  2  0  0  0
 10 11  1  0  0  0
 11 49  1  0  0  0
 11 12  2  0  0  0
 12 13  1  0  0  0
 12 14  1  0  0  0
 14 45  2  0  0  0
 14 15  1  0  0  0
 15 44  1  0  0  0
 15 34  1  0  0  0
 15 16  1  0  0  0
 16 32  1  0  0  0
 16 17  2  0  0  0
 17 18  1  0  0  0
 17 19  1  0  0  0
 19 20  1  0  0  0
 19 21  2  0  0  0
 21 22  1  0  0  0
 21 27  1  0  0  0
 22 23  1  0  0  0
 23 24  1  0  0  0
 23 25  1  0  0  0
 23 26  1  0  0  0
 27 28  1  0  0  0
 27 32  2  0  0  0
 28 29  1  0  0  0
 28 30  1  0  0  0
 28 31  1  0  0  0
 32 33  1  0  0  0
 34 35  2  0  0  0
 34 36  1  0  0  0
 36 37  1  0  0  0
 36 41  1  0  0  0
 37 38  1  0  0  0
 37 39  1  0  0  0
 37 40  1  0  0  0
 41 42  1  0  0  0
 41 44  2  0  0  0
 42 43  1  0  0  0
 42 51  1  0  0  0
 45 46  1  0  0  0
 45 47  1  0  0  0
 47 48  1  0  0  0
 47 49  2  0  0  0
 49 50  1  0  0  0
M  END
> <s_m_source_file>
ligprep_bace_p2.smi

> <i_m_source_file_index>
11

> <i_lp_mmshare_version>
53161

> <i_f3d_flags>
0

> <s_epik_input>
W2NIXTFbY0hdW2NIXW5bY0hdYzEtYzJbY0hdYyhbY0hdW2NIXVtjSF0yKVtDQEBdMyhDKD1PKU4oW0NIM10pQyg9TjMpW05IMl0pYzRbY0hdW2NIXWMoT1tDSDNdKWMoQyhGKShGKUYpW2NIXTQ=

> <s_epik_cmdline>
J2VwaWtfcHl0aG9uJywgJy1waHQnLCAnMC4wJywgJy1waCcsICc3LjQnLCAnLXRuJywgJzgnLCAnLW1hJywgJzUwMCcsICctaW1hZScsICc8aW5maWxlLm1hZT4nLCAnLW9tYWUnLCAnPG91dGZpbGUubWFlPic=

> <r_lp_tautomer_probability>
1

> <r_epik_Ionization_Penalty>
0.779

> <r_epik_Ionization_Penalty_Charging>
0

> <r_epik_Ionization_Penalty_Neutral>
0.779

> <r_epik_State_Penalty>
-0

> <r_epik_Charging_Adjusted_Penalty>
0

> <i_epik_Tot_Q>
0

> <i_epik_Tot_abs_Q>
0

> <s_epik_Chemistry_Notes>
This compound has an imine and may undergo hydrolysis.

> <s_lp_Force_Field>
S-OPLS

> <r_lp_Energy>
53.5111

> <b_lp_Chiralities_Consistent>
1

> <s_lp_Variant>
lig_38_L-1

> <s_i_glide_gridfile>
glide-grid_3IN4-BACE_P2

> <i_i_glide_lignum>
11

> <i_i_glide_rotatable_bonds>
5

> <r_i_docking_score>
-7.1877

> <r_i_glide_ligand_efficiency>
-0.224616

> <r_i_glide_ligand_efficiency_sa>
-0.713111

> <r_i_glide_ligand_efficiency_ln>
-1.60952

> <r_i_glide_gscore>
-7.1877

> <r_i_glide_lipo>
-2.06491

> <r_i_glide_hbond>
-0.926063

> <r_i_glide_metal>
-0

> <r_i_glide_rewards>
-0.954705

> <r_i_glide_evdw>
-43.4723

> <r_i_glide_ecoul>
-9.63841

> <r_i_glide_erotb>
0.514685

> <r_i_glide_esite>
-0.137338

> <r_i_glide_emodel>
-73.2189

> <r_i_glide_energy>
-53.1107

> <r_i_glide_einternal>
4.60957

> <i_i_glide_confnum>
80

> <i_i_glide_posenum>
137

> <r_i_glide_eff_state_penalty>
-0

> <r_i_glide_rmsd>
0.0817626

> <s_glide_core_constrain_type>
snapped_core_restrain
$$$$