lig_p38a_2v
                    3D
 Schrodinger Suite 2021-1.
 35 37  0  0  1  0            999 V2000
   20.7693    7.8393   30.6824 H   0  0  0  0  0  0
   21.6447    8.4544   30.8356 C   0  0  0  0  0  0
   22.8382    7.8243   30.8516 N   0  0  0  0  0  0
   23.9066    8.5952   31.0373 C   0  0  0  0  0  0
   25.1168    7.9390   31.0649 N   0  0  0  0  0  0
   25.1128    6.9271   31.0075 H   0  0  0  0  0  0
   26.3894    8.6304   31.1876 C   0  0  0  0  0  0
   27.2145    7.9179   31.1955 H   0  0  0  0  0  0
   26.4211    9.2068   32.1126 H   0  0  0  0  0  0
   26.5322    9.3147   30.3507 H   0  0  0  0  0  0
   23.9139    9.9175   31.2051 N   0  0  0  0  0  0
   22.7333   10.5723   31.2194 C   0  0  0  0  0  0
   21.5378    9.8472   31.0279 C   0  0  0  0  0  0
   20.2689   10.5671   31.0533 C   0  0  0  0  0  0
   19.3729    9.9929   30.8711 H   0  0  0  0  0  0
   20.2323   11.9005   31.2859 C   0  0  0  0  0  0
   19.0777   12.6563   31.3085 O   0  0  0  0  0  0
   17.8331   12.0888   31.2146 C   0  0  0  0  0  0
   17.3079   11.2970   32.2586 C   0  0  0  0  0  0
   18.0679   11.0196   33.3442 F   0  0  0  0  0  0
   15.9844   10.8170   32.1793 C   0  0  0  0  0  0
   15.5720   10.2151   32.9781 H   0  0  0  0  0  0
   15.2019   11.1066   31.0447 C   0  0  0  0  0  0
   13.9472   10.6225   30.9343 F   0  0  0  0  0  0
   15.7183   11.9065   30.0126 C   0  0  0  0  0  0
   15.1067   12.1375   29.1535 H   0  0  0  0  0  0
   17.0253   12.4118   30.1085 C   0  0  0  0  0  0
   17.4136   13.0364   29.3184 H   0  0  0  0  0  0
   21.4671   12.6620   31.5015 C   0  0  0  0  0  0
   21.4146   13.8711   31.7350 O   0  0  0  0  0  0
   22.6515   11.9881   31.4263 N   0  0  0  0  0  0
   23.9213   12.7240   31.5891 C   0  0  0  0  0  0
   23.8217   13.8124   31.6490 H   0  0  0  0  0  0
   24.4350   12.3961   32.4953 H   0  0  0  0  0  0
   24.5901   12.5223   30.7493 H   0  0  0  0  0  0
  1  2  1  0  0  0
  2 13  1  0  0  0
  2  3  2  0  0  0
  3  4  1  0  0  0
  4  5  1  0  0  0
  4 11  2  0  0  0
  5  6  1  0  0  0
  5  7  1  0  0  0
  7  8  1  0  0  0
  7  9  1  0  0  0
  7 10  1  0  0  0
 11 12  1  0  0  0
 12 31  1  0  0  0
 12 13  2  0  0  0
 13 14  1  0  0  0
 14 15  1  0  0  0
 14 16  2  0  0  0
 16 17  1  0  0  0
 16 29  1  0  0  0
 17 18  1  0  0  0
 18 27  1  0  0  0
 18 19  2  0  0  0
 19 20  1  0  0  0
 19 21  1  0  0  0
 21 22  1  0  0  0
 21 23  2  0  0  0
 23 24  1  0  0  0
 23 25  1  0  0  0
 25 26  1  0  0  0
 25 27  2  0  0  0
 27 28  1  0  0  0
 29 30  2  0  0  0
 29 31  1  0  0  0
 31 32  1  0  0  0
 32 33  1  0  0  0
 32 34  1  0  0  0
 32 35  1  0  0  0
M  END
> <s_m_source_file>
ligprep_p38.smi

> <i_m_source_file_index>
24

> <i_lp_mmshare_version>
53161

> <i_f3d_flags>
0

> <s_epik_input>
W0NIM11bTkhdYyhuMSluW2NIXWMoYzEyKVtjSF1jKGMoPU8pbjJbQ0gzXSlPYzNjKEYpW2NIXWMoRilbY0hdW2NIXTM=

> <s_epik_cmdline>
J2VwaWtfcHl0aG9uJywgJy1waHQnLCAnMC4wJywgJy1waCcsICc3LjQnLCAnLXRuJywgJzgnLCAnLW1hJywgJzUwMCcsICctaW1hZScsICc8aW5maWxlLm1hZT4nLCAnLW9tYWUnLCAnPG91dGZpbGUubWFlPic=

> <r_lp_tautomer_probability>
1

> <r_epik_Ionization_Penalty>
0

> <r_epik_Ionization_Penalty_Charging>
0

> <r_epik_Ionization_Penalty_Neutral>
0

> <r_epik_State_Penalty>
-0

> <r_epik_Charging_Adjusted_Penalty>
1.47076e-06

> <i_epik_Tot_Q>
0

> <i_epik_Tot_abs_Q>
0

> <s_epik_Chemistry_Notes>
This compound has an imine and may undergo hydrolysis.

> <s_lp_Force_Field>
S-OPLS

> <r_lp_Energy>
48.4196

> <b_lp_Chiralities_Consistent>
1

> <s_lp_Variant>
lig_p38a_2v-1

> <s_i_glide_gridfile>
glide-grid_3FLY-P38

> <i_i_glide_lignum>
25

> <i_i_glide_rotatable_bonds>
3

> <r_i_docking_score>
-10.326

> <r_i_glide_ligand_efficiency>
-0.448958

> <r_i_glide_ligand_efficiency_sa>
-1.27678

> <r_i_glide_ligand_efficiency_ln>
-2.49693

> <r_i_glide_gscore>
-10.326

> <r_i_glide_lipo>
-2.77824

> <r_i_glide_hbond>
-1.1892

> <r_i_glide_metal>
-0

> <r_i_glide_rewards>
-3.27589

> <r_i_glide_evdw>
-38.3866

> <r_i_glide_ecoul>
-11.4364

> <r_i_glide_erotb>
0.552097

> <r_i_glide_esite>
0

> <r_i_glide_emodel>
-83.2476

> <r_i_glide_energy>
-49.823

> <r_i_glide_einternal>
1.09972e-08

> <i_i_glide_confnum>
1

> <i_i_glide_posenum>
1

> <r_i_glide_eff_state_penalty>
-0

> <r_i_glide_rmsd>
0.0855906

> <s_glide_core_constrain_type>
snapped_core_restrain
$$$$