lig_8d
                    3D
 Schrodinger Suite 2021-1.
 46 49  0  0  1  0            999 V2000
  -37.9496   -9.5081   10.8165 H   0  0  0  0  0  0
  -38.3480  -10.2421   10.1301 C   0  0  0  0  0  0
  -38.3390   -9.9477    8.7516 C   0  0  0  0  0  0
  -37.9313   -9.0052    8.4158 H   0  0  0  0  0  0
  -38.8316  -10.8812    7.8154 C   0  0  0  0  0  0
  -38.7288  -10.5920    6.3203 C   0  0  0  0  0  0
  -38.6370   -9.5130    6.1968 H   0  0  0  0  0  0
  -37.4444  -11.2474    5.7731 C   0  0  0  0  0  0
  -36.5716  -10.8124    6.2596 H   0  0  0  0  0  0
  -37.4311  -12.3062    6.0262 H   0  0  0  0  0  0
  -37.3197  -11.1084    4.2528 C   0  0  0  0  0  0
  -37.2348  -10.0577    3.9709 H   0  0  0  0  0  0
  -36.4161  -11.6078    3.9007 H   0  0  0  0  0  0
  -38.4931  -11.7157    3.5967 N   0  3  0  0  0  0
  -38.3843  -11.6460    2.5942 H   0  0  0  0  0  0
  -39.7585  -11.0593    3.9833 C   0  0  0  0  0  0
  -39.7420  -10.0557    3.5827 H   0  0  0  0  0  0
  -40.5896  -11.5642    3.4895 H   0  0  0  0  0  0
  -39.9719  -11.0513    5.5122 C   0  0  0  0  0  0
  -40.2657  -12.0557    5.7839 H   0  0  0  0  0  0
  -40.8306  -10.4315    5.7706 H   0  0  0  0  0  0
  -39.3289  -12.1159    8.2851 C   0  0  0  0  0  0
  -39.6807  -12.8757    7.6080 H   0  0  0  0  0  0
  -39.3557  -12.4062    9.6578 C   0  0  0  0  0  0
  -39.7454  -13.3650    9.9713 H   0  0  0  0  0  0
  -38.8623  -11.4750   10.5972 C   0  0  0  0  0  0
  -38.8832  -11.8076   12.0577 C   0  0  0  0  0  0
  -39.5512  -12.8480   12.4714 N   0  0  0  0  0  0
  -39.6009  -13.1856   13.8342 C   0  0  0  0  0  0
  -38.9219  -12.4012   14.7985 C   0  0  0  0  0  0
  -39.0511  -12.6996   16.1767 C   0  0  0  0  0  0
  -38.5586  -12.0893   16.9197 H   0  0  0  0  0  0
  -39.8590  -13.7839   16.5848 C   0  0  0  0  0  0
  -40.1033  -14.0557   17.8837 F   0  0  0  0  0  0
  -40.4931  -14.5844   15.6261 C   0  0  0  0  0  0
  -41.1044  -15.4126   15.9559 H   0  0  0  0  0  0
  -40.3577  -14.3051   14.2548 C   0  0  0  0  0  0
  -41.0396  -15.2248   13.2620 C   0  0  0  0  0  0
  -40.5641  -15.1829   12.2804 H   0  0  0  0  0  0
  -40.9621  -16.2547   13.6067 H   0  0  0  0  0  0
  -42.0942  -14.9647   13.1705 H   0  0  0  0  0  0
  -38.0758  -11.2663   14.2924 C   0  0  0  0  0  0
  -37.3383  -10.6104   15.0274 O   0  0  0  0  0  0
  -38.1585  -11.0297   12.9715 N   0  0  0  0  0  0
  -37.5718  -10.2894   12.6114 H   0  0  0  0  0  0
  -38.5434  -12.6925    3.8484 H   0  0  0  0  0  0
  1  2  1  0  0  0
  2 26  1  0  0  0
  2  3  2  0  0  0
  3  4  1  0  0  0
  3  5  1  0  0  0
  5  6  1  0  0  0
  5 22  2  0  0  0
  6 19  1  0  0  0
  6  7  1  0  0  0
  6  8  1  0  0  0
  8  9  1  0  0  0
  8 10  1  0  0  0
  8 11  1  0  0  0
 11 12  1  0  0  0
 11 13  1  0  0  0
 11 14  1  0  0  0
 14 15  1  0  0  0
 14 16  1  0  0  0
 14 46  1  0  0  0
 16 17  1  0  0  0
 16 18  1  0  0  0
 16 19  1  0  0  0
 19 20  1  0  0  0
 19 21  1  0  0  0
 22 23  1  0  0  0
 22 24  1  0  0  0
 24 25  1  0  0  0
 24 26  2  0  0  0
 26 27  1  0  0  0
 27 44  1  0  0  0
 27 28  2  0  0  0
 28 29  1  0  0  0
 29 37  2  0  0  0
 29 30  1  0  0  0
 30 31  2  0  0  0
 30 42  1  0  0  0
 31 32  1  0  0  0
 31 33  1  0  0  0
 33 34  1  0  0  0
 33 35  2  0  0  0
 35 36  1  0  0  0
 35 37  1  0  0  0
 37 38  1  0  0  0
 38 39  1  0  0  0
 38 40  1  0  0  0
 38 41  1  0  0  0
 42 43  2  0  0  0
 42 44  1  0  0  0
 44 45  1  0  0  0
M  CHG  1  14   1
M  END
> <s_m_source_file>
ligprep_tnks2.smi

> <i_m_source_file_index>
25

> <i_lp_mmshare_version>
53161

> <i_f3d_flags>
0

> <s_epik_input>
W0NIMl0xW0NIMl1bTkhdW0NIMl1bQ0gyXVtDSF0xYzJbY0hdW2NIXWMoW2NIXVtjSF0yKS1jKG4zKVtuSF1jKD1PKWMoYzM0KVtjSF1jKEYpW2NIXWM0W0NIM10=

> <s_epik_cmdline>
J2VwaWtfcHl0aG9uJywgJy1waHQnLCAnMC4wJywgJy1waCcsICc3LjQnLCAnLXRuJywgJzgnLCAnLW1hJywgJzUwMCcsICctaW1hZScsICc8aW5maWxlLm1hZT4nLCAnLW9tYWUnLCAnPG91dGZpbGUubWFlPic=

> <r_lp_tautomer_probability>
1

> <r_epik_Ionization_Penalty>
0.0248

> <r_epik_Ionization_Penalty_Charging>
0.0248

> <r_epik_Ionization_Penalty_Neutral>
0

> <r_epik_State_Penalty>
-0

> <r_epik_Charging_Adjusted_Penalty>
0.0247869

> <i_epik_Tot_Q>
1

> <i_epik_Tot_abs_Q>
1

> <s_lp_Force_Field>
S-OPLS

> <r_lp_Energy>
40.3523

> <b_lp_Chiralities_Consistent>
1

> <s_lp_Variant>
lig_8d-1

> <s_i_glide_gridfile>
glide-grid_4UI5-TNKS2

> <i_i_glide_lignum>
25

> <i_i_glide_rotatable_bonds>
2

> <r_i_docking_score>
-12.3583

> <r_i_glide_ligand_efficiency>
-0.494331

> <r_i_glide_ligand_efficiency_sa>
-1.44543

> <r_i_glide_ligand_efficiency_ln>
-2.92928

> <r_i_glide_gscore>
-12.3583

> <r_i_glide_lipo>
-4.86153

> <r_i_glide_hbond>
-0.815466

> <r_i_glide_metal>
-0

> <r_i_glide_rewards>
-3.16005

> <r_i_glide_evdw>
-47.3126

> <r_i_glide_ecoul>
-9.23071

> <r_i_glide_erotb>
0.231205

> <r_i_glide_esite>
-0.00219123

> <r_i_glide_emodel>
-72.4575

> <r_i_glide_energy>
-56.5433

> <r_i_glide_einternal>
2.49502

> <i_i_glide_confnum>
4

> <i_i_glide_posenum>
4

> <r_i_glide_eff_state_penalty>
-0

> <r_i_glide_rmsd>
0.102545

> <s_glide_core_constrain_type>
snapped_core_restrain
$$$$