lig_1d
                    3D
 Schrodinger Suite 2021-1.
 52 54  0  0  1  0            999 V2000
   22.1233  -13.3154   24.9978 C   0  0  0  0  0  0
   20.9792  -12.6866   25.5245 C   0  0  0  0  0  0
   19.7174  -13.2943   25.3852 C   0  0  0  0  0  0
   19.5842  -14.5256   24.7093 C   0  0  0  0  0  0
   20.7388  -15.1657   24.2095 C   0  0  0  0  0  0
   22.0038  -14.5580   24.3458 C   0  0  0  0  0  0
   18.2100  -15.1617   24.5311 C   0  0  0  0  0  0
   17.6422  -15.1726   23.0875 C   0  0  2  0  0  0
   17.4012  -13.7463   22.5569 C   0  0  0  0  0  0
   16.4464  -13.1279   23.0315 O   0  0  0  0  0  0
   18.2044  -13.2021   21.6106 N   0  0  0  0  0  0
   19.4187  -13.8240   21.0725 C   0  0  0  0  0  0
   20.1122  -12.7579   20.2278 C   0  0  0  0  0  0
   19.0343  -11.7403   19.8958 C   0  0  0  0  0  0
   17.9798  -11.8712   21.0065 C   0  0  1  0  0  0
   16.5637  -11.6901   20.4142 C   0  0  0  0  0  0
   16.0464  -12.5985   19.7598 O   0  0  0  0  0  0
   15.9465  -10.5257   20.6512 N   0  0  0  0  0  0
   14.5993  -10.1725   20.2154 C   0  0  0  0  0  0
   13.5293  -10.4583   21.2515 C   0  0  0  0  0  0
   12.8363  -11.6868   21.2512 C   0  0  0  0  0  0
   11.8156  -11.9193   22.1936 C   0  0  0  0  0  0
   11.4886  -10.9293   23.1415 C   0  0  0  0  0  0
   12.2110   -9.7193   23.1706 C   0  0  0  0  0  0
   13.2186   -9.4811   22.2199 C   0  0  0  0  0  0
   11.8438   -8.2823   24.6512 I   0  0  0  0  0  0
   16.3410  -15.8717   23.0512 N   0  3  0  0  0  0
   18.3162  -15.7285   22.4349 H   0  0  0  0  0  0
   18.1661  -11.1234   21.7787 H   0  0  0  0  0  0
   16.0176  -15.8766   22.0861 H   0  0  0  0  0  0
   16.4260  -16.8170   23.3925 H   0  0  0  0  0  0
   23.0932  -12.8547   25.1039 H   0  0  0  0  0  0
   21.0677  -11.7406   26.0378 H   0  0  0  0  0  0
   18.8516  -12.8036   25.8064 H   0  0  0  0  0  0
   20.6610  -16.1168   23.7025 H   0  0  0  0  0  0
   22.8835  -15.0440   23.9555 H   0  0  0  0  0  0
   18.2794  -16.1850   24.9020 H   0  0  0  0  0  0
   17.5063  -14.6572   25.1974 H   0  0  0  0  0  0
   20.0903  -14.1884   21.8458 H   0  0  0  0  0  0
   19.1342  -14.6679   20.4454 H   0  0  0  0  0  0
   20.8898  -12.2767   20.8253 H   0  0  0  0  0  0
   20.5956  -13.1740   19.3411 H   0  0  0  0  0  0
   19.4436  -10.7308   19.8511 H   0  0  0  0  0  0
   18.6191  -11.9707   18.9117 H   0  0  0  0  0  0
   16.4526   -9.8245   21.1830 H   0  0  0  0  0  0
   14.5846   -9.1020   20.0107 H   0  0  0  0  0  0
   14.3460  -10.6608   19.2720 H   0  0  0  0  0  0
   13.0757  -12.4453   20.5210 H   0  0  0  0  0  0
   11.2765  -12.8534   22.1924 H   0  0  0  0  0  0
   10.7060  -11.1117   23.8650 H   0  0  0  0  0  0
   13.7626   -8.5467   22.2446 H   0  0  0  0  0  0
   15.6673  -15.3453   23.5984 H   0  0  0  0  0  0
  1  6  1  0  0  0
  1  2  2  0  0  0
  1 32  1  0  0  0
  2  3  1  0  0  0
  2 33  1  0  0  0
  3  4  2  0  0  0
  3 34  1  0  0  0
  4  5  1  0  0  0
  4  7  1  0  0  0
  5  6  2  0  0  0
  5 35  1  0  0  0
  6 36  1  0  0  0
  7  8  1  0  0  0
  7 37  1  0  0  0
  7 38  1  0  0  0
  8 28  1  0  0  0
  8  9  1  0  0  0
  8 27  1  0  0  0
  9 10  2  0  0  0
  9 11  1  0  0  0
 11 15  1  0  0  0
 11 12  1  0  0  0
 12 13  1  0  0  0
 12 39  1  0  0  0
 12 40  1  0  0  0
 13 14  1  0  0  0
 13 41  1  0  0  0
 13 42  1  0  0  0
 14 15  1  0  0  0
 14 43  1  0  0  0
 14 44  1  0  0  0
 15 29  1  0  0  0
 15 16  1  0  0  0
 16 17  2  0  0  0
 16 18  1  0  0  0
 18 19  1  0  0  0
 18 45  1  0  0  0
 19 20  1  0  0  0
 19 46  1  0  0  0
 19 47  1  0  0  0
 20 25  1  0  0  0
 20 21  2  0  0  0
 21 22  1  0  0  0
 21 48  1  0  0  0
 22 23  2  0  0  0
 22 49  1  0  0  0
 23 24  1  0  0  0
 23 50  1  0  0  0
 24 25  2  0  0  0
 24 26  1  0  0  0
 25 51  1  0  0  0
 27 30  1  0  0  0
 27 31  1  0  0  0
 27 52  1  0  0  0
M  CHG  1  27   1
M  END
> <s_m_source_file>
ligprep_thrombin.smi

> <i_m_source_file_index>
4

> <i_lp_mmshare_version>
53161

> <i_f3d_flags>
0

> <s_epik_input>
W2NIXTFbY0hdW2NIXVtjSF1bY0hdYzFbQ0gyXVtDQEBIXShbTkgyXSlDKD1PKU4yW0NIMl1bQ0gyXVtDSDJdW0NASF0yQyg9TylbTkhdW0NIMl1jM1tjSF1bY0hdW2NIXWMoSSlbY0hdMw==

> <s_epik_cmdline>
J2VwaWtfcHl0aG9uJywgJy1waHQnLCAnMC4wJywgJy1waCcsICc3LjQnLCAnLXRuJywgJzgnLCAnLW1hJywgJzUwMCcsICctaW1hZScsICc8aW5maWxlLm1hZT4nLCAnLW9tYWUnLCAnPG91dGZpbGUubWFlPic=

> <r_epik_Ionization_Penalty>
0.3822

> <r_epik_Ionization_Penalty_Charging>
0.3822

> <r_epik_Ionization_Penalty_Neutral>
0

> <r_epik_State_Penalty>
0.3803

> <r_epik_Charging_Adjusted_Penalty>
0.762511

> <i_epik_Tot_Q>
1

> <i_epik_Tot_abs_Q>
1

> <s_lp_Force_Field>
S-OPLS

> <r_lp_Energy>
36.9083

> <b_lp_Chiralities_Consistent>
1

> <s_lp_Variant>
lig_1d-1

> <s_i_glide_gridfile>
glide-grid_2ZFF-Thrombin

> <i_i_glide_lignum>
4

> <i_i_glide_rotatable_bonds>
8

> <r_i_docking_score>
-10.7079

> <r_i_glide_ligand_efficiency>
-0.396589

> <r_i_glide_ligand_efficiency_sa>
-1.18977

> <r_i_glide_ligand_efficiency_ln>
-2.49262

> <r_i_glide_gscore>
-11.0882

> <r_i_glide_lipo>
-4.96148

> <r_i_glide_hbond>
-0.864

> <r_i_glide_metal>
-0

> <r_i_glide_rewards>
-0.885307

> <r_i_glide_evdw>
-50.6843

> <r_i_glide_ecoul>
-16.8009

> <r_i_glide_erotb>
0.708476

> <r_i_glide_esite>
-0.0315248

> <r_i_glide_emodel>
-119.205

> <r_i_glide_energy>
-67.4852

> <r_i_glide_einternal>
-8.58008e-07

> <i_i_glide_confnum>
6

> <i_i_glide_posenum>
4

> <r_i_glide_eff_state_penalty>
0.3803

> <r_i_glide_rmsd>
0.0934401

> <s_glide_core_constrain_type>
snapped_core_restrain
$$$$