lig_165
                    3D
 Schrodinger Suite 2021-1.
 39 41  0  0  1  0            999 V2000
   17.8335   -1.3003   -9.7851 H   0  0  0  0  0  0
   18.8131   -1.0622  -10.1629 C   0  0  0  0  0  0
   19.5077   -2.0496  -10.8877 C   0  0  0  0  0  0
   18.9402   -3.2544  -11.1094 F   0  0  0  0  0  0
   20.7795   -1.7566  -11.4134 C   0  0  0  0  0  0
   21.3135   -2.5046  -11.9881 H   0  0  0  0  0  0
   21.3456   -0.4885  -11.1867 C   0  0  0  0  0  0
   22.5700   -0.1965  -11.7161 O   0  0  0  0  0  0
   23.6936   -0.3399  -10.9364 C   0  0  0  0  0  0
   23.7011   -0.8328   -9.6026 C   0  0  0  0  0  0
   22.7846   -1.1249   -9.1039 H   0  0  0  0  0  0
   24.9153   -1.0005   -8.9003 C   0  0  0  0  0  0
   24.9010   -1.3673   -7.8851 H   0  0  0  0  0  0
   26.1502   -0.6903   -9.5208 C   0  0  0  0  0  0
   27.6711   -0.9389   -8.5892 S   0  0  0  0  0  0
   27.3815   -1.9097   -7.5351 O   0  0  0  0  0  0
   28.7800   -1.2098   -9.4984 O   0  0  0  0  0  0
   28.0293    0.6679   -7.8037 C   0  0  0  0  0  0
   28.8345    0.5167   -7.0863 H   0  0  0  0  0  0
   28.3437    1.4228   -8.5156 H   0  0  0  0  0  0
   27.1366    1.0038   -7.2672 H   0  0  0  0  0  0
   26.1235   -0.1469  -10.8216 C   0  0  0  0  0  0
   24.9169    0.0282  -11.5109 C   0  0  0  0  0  0
   25.1241    0.5995  -12.8993 C   0  0  0  0  0  0
   24.5636    0.0594  -13.6595 H   0  0  0  0  0  0
   24.7742    1.6359  -12.8802 H   0  0  0  0  0  0
   26.6519    0.5202  -13.0808 C   0  0  0  0  0  0
   27.1199    1.5321  -13.8001 F   0  0  0  0  0  0
   26.8926   -0.6100  -13.7481 F   0  0  0  0  0  0
   27.2578    0.3787  -11.6541 C   0  0  1  0  0  0
   28.1212   -0.2971  -11.6508 H   0  0  0  0  0  0
   27.6260    1.6757  -11.1526 N   0  0  0  0  0  0
   27.7196    1.6709  -10.1445 H   0  0  0  0  0  0
   28.5573    1.9274  -11.5089 H   0  0  0  0  0  0
   20.6455    0.4852  -10.4640 C   0  0  0  0  0  0
   21.0947    1.4603  -10.2914 H   0  0  0  0  0  0
   19.3699    0.2168   -9.9689 C   0  0  0  0  0  0
   18.6443    1.2508   -9.2588 C   0  0  0  0  0  0
   18.0661    2.0744   -8.6946 N   0  0  0  0  0  0
  1  2  1  0  0  0
  2 37  1  0  0  0
  2  3  2  0  0  0
  3  4  1  0  0  0
  3  5  1  0  0  0
  5  6  1  0  0  0
  5  7  2  0  0  0
  7  8  1  0  0  0
  7 35  1  0  0  0
  8  9  1  0  0  0
  9 23  1  0  0  0
  9 10  2  0  0  0
 10 11  1  0  0  0
 10 12  1  0  0  0
 12 13  1  0  0  0
 12 14  2  0  0  0
 14 15  1  0  0  0
 14 22  1  0  0  0
 15 16  2  0  0  0
 15 17  2  0  0  0
 15 18  1  0  0  0
 18 19  1  0  0  0
 18 20  1  0  0  0
 18 21  1  0  0  0
 22 30  1  0  0  0
 22 23  2  0  0  0
 23 24  1  0  0  0
 24 25  1  0  0  0
 24 26  1  0  0  0
 24 27  1  0  0  0
 27 28  1  0  0  0
 27 29  1  0  0  0
 27 30  1  0  0  0
 30 31  1  0  0  0
 30 32  1  0  0  0
 32 33  1  0  0  0
 32 34  1  0  0  0
 35 36  1  0  0  0
 35 37  2  0  0  0
 37 38  1  0  0  0
 38 39  3  0  0  0
M  END
> <s_m_source_file>
ligprep_hif2a.smi

> <i_m_source_file_index>
8

> <i_lp_mmshare_version>
53161

> <i_f3d_flags>
0

> <s_epik_input>
RmMxW2NIXWMoQyNOKVtjSF1jKFtjSF0xKU9jKFtjSF1bY0hdYzJTKD1PKSg9TylbQ0gzXSljKGMyMylbQ0gyXUMoRikoRilbQ0BIXTNbTkgyXQ==

> <s_epik_cmdline>
J2VwaWtfcHl0aG9uJywgJy1waHQnLCAnMC4wJywgJy1waCcsICc3LjQnLCAnLXRuJywgJzgnLCAnLW1hJywgJzUwMCcsICctaW1hZScsICc8aW5maWxlLm1hZT4nLCAnLW9tYWUnLCAnPG91dGZpbGUubWFlPic=

> <r_lp_tautomer_probability>
1

> <r_epik_Ionization_Penalty>
0.0349

> <r_epik_Ionization_Penalty_Charging>
0

> <r_epik_Ionization_Penalty_Neutral>
0.0349

> <r_epik_State_Penalty>
0.0291

> <r_epik_Charging_Adjusted_Penalty>
0.0290932

> <i_epik_Tot_Q>
0

> <i_epik_Tot_abs_Q>
0

> <s_lp_Force_Field>
S-OPLS

> <r_lp_Energy>
31.5232

> <b_lp_Chiralities_Consistent>
1

> <s_lp_Variant>
lig_165-1

> <s_i_glide_gridfile>
glide-grid_5TBM-HIF2a

> <i_i_glide_lignum>
8

> <i_i_glide_rotatable_bonds>
3

> <r_i_docking_score>
-12.1141

> <r_i_glide_ligand_efficiency>
-0.465928

> <r_i_glide_ligand_efficiency_sa>
-1.38031

> <r_i_glide_ligand_efficiency_ln>
-2.84497

> <r_i_glide_gscore>
-12.1432

> <r_i_glide_lipo>
-4.74558

> <r_i_glide_hbond>
-0.608

> <r_i_glide_metal>
-0

> <r_i_glide_rewards>
-3.44047

> <r_i_glide_evdw>
-53.2651

> <r_i_glide_ecoul>
-7.22962

> <r_i_glide_erotb>
0.398518

> <r_i_glide_esite>
0

> <r_i_glide_emodel>
-97.5469

> <r_i_glide_energy>
-60.4947

> <r_i_glide_einternal>
1.29391e-07

> <i_i_glide_confnum>
1

> <i_i_glide_posenum>
1

> <r_i_glide_eff_state_penalty>
0.0291

> <r_i_glide_rmsd>
0.0797239

> <s_glide_core_constrain_type>
snapped_core_restrain
$$$$