lig_336
                    3D
 Schrodinger Suite 2021-1.
 37 39  0  0  1  0            999 V2000
   28.3087    2.0633  -11.6808 H   0  0  0  0  0  0
   27.6737    1.6750  -11.0837 O   0  0  0  0  0  0
   27.3186    0.4009  -11.5849 C   0  0  1  0  0  0
   28.1843   -0.2558  -11.6137 H   0  0  0  0  0  0
   26.1633   -0.1407  -10.7852 C   0  0  0  0  0  0
   24.9680    0.0276  -11.4773 C   0  0  0  0  0  0
   23.7339   -0.3472  -10.9266 C   0  0  0  0  0  0
   22.6144   -0.1868  -11.7026 O   0  0  0  0  0  0
   21.3858   -0.4837  -11.1870 C   0  0  0  0  0  0
   20.8080   -1.7456  -11.4188 C   0  0  0  0  0  0
   21.3419   -2.4954  -11.9840 H   0  0  0  0  0  0
   19.5286   -2.0273  -10.9079 C   0  0  0  0  0  0
   18.9605   -3.2302  -11.1330 F   0  0  0  0  0  0
   18.8258   -1.0520  -10.1796 C   0  0  0  0  0  0
   17.8464   -1.2913   -9.7928 H   0  0  0  0  0  0
   19.3922    0.2204   -9.9720 C   0  0  0  0  0  0
   18.6655    1.2546   -9.2576 C   0  0  0  0  0  0
   18.0917    2.0764   -8.6831 N   0  0  0  0  0  0
   20.6813    0.4924  -10.4598 C   0  0  0  0  0  0
   21.1249    1.4619  -10.2873 H   0  0  0  0  0  0
   23.7295   -0.8627   -9.6046 C   0  0  0  0  0  0
   22.8075   -1.1504   -9.1236 H   0  0  0  0  0  0
   24.9384   -1.0293   -8.8916 C   0  0  0  0  0  0
   24.9200   -1.4286   -7.8887 H   0  0  0  0  0  0
   26.1700   -0.6901   -9.4886 C   0  0  0  0  0  0
   27.6857   -0.9486   -8.5761 S   0  0  0  0  0  0
   27.4320   -1.8960   -7.4835 O   0  0  0  0  0  0
   28.7768   -1.2178   -9.5148 O   0  0  0  0  0  0
   27.9703    0.6007   -7.8928 N   0  0  0  0  0  0
   28.7679    0.5796   -7.2609 H   0  0  0  0  0  0
   28.1223    1.2966   -8.6272 H   0  0  0  0  0  0
   25.1916    0.6669  -12.8183 C   0  0  1  0  0  0
   24.6027    0.2351  -13.6263 H   0  0  0  0  0  0
   24.8809    1.9540  -12.6806 F   0  0  0  0  0  0
   26.7087    0.5049  -13.0010 C   0  0  1  0  0  0
   26.8825   -0.4519  -13.5002 H   0  0  0  0  0  0
   27.2608    1.4035  -13.8080 F   0  0  0  0  0  0
  1  2  1  0  0  0
  2  3  1  0  0  0
  3 35  1  0  0  0
  3  4  1  0  0  0
  3  5  1  0  0  0
  5 25  1  0  0  0
  5  6  2  0  0  0
  6  7  1  0  0  0
  6 32  1  0  0  0
  7  8  1  0  0  0
  7 21  2  0  0  0
  8  9  1  0  0  0
  9 19  1  0  0  0
  9 10  2  0  0  0
 10 11  1  0  0  0
 10 12  1  0  0  0
 12 13  1  0  0  0
 12 14  2  0  0  0
 14 15  1  0  0  0
 14 16  1  0  0  0
 16 17  1  0  0  0
 16 19  2  0  0  0
 17 18  3  0  0  0
 19 20  1  0  0  0
 21 22  1  0  0  0
 21 23  1  0  0  0
 23 24  1  0  0  0
 23 25  2  0  0  0
 25 26  1  0  0  0
 26 27  2  0  0  0
 26 28  2  0  0  0
 26 29  1  0  0  0
 29 30  1  0  0  0
 29 31  1  0  0  0
 32 33  1  0  0  0
 32 34  1  0  0  0
 32 35  1  0  0  0
 35 36  1  0  0  0
 35 37  1  0  0  0
M  END
> <s_m_source_file>
ligprep_hif2a.smi

> <i_m_source_file_index>
29

> <i_lp_mmshare_version>
53161

> <i_f3d_flags>
0

> <s_epik_input>
W09IXVtDQEBIXTFbQ0BIXShGKVtDQEhdKEYpYyhjMTIpYyhbY0hdW2NIXWMyUyg9TykoPU8pW05IMl0pT2MzW2NIXWMoRilbY0hdYyhDI04pW2NIXTM=

> <s_epik_cmdline>
J2VwaWtfcHl0aG9uJywgJy1waHQnLCAnMC4wJywgJy1waCcsICc3LjQnLCAnLXRuJywgJzgnLCAnLW1hJywgJzUwMCcsICctaW1hZScsICc8aW5maWxlLm1hZT4nLCAnLW9tYWUnLCAnPG91dGZpbGUubWFlPic=

> <r_lp_tautomer_probability>
1

> <r_epik_Ionization_Penalty>
0.0071

> <r_epik_Ionization_Penalty_Charging>
0

> <r_epik_Ionization_Penalty_Neutral>
0.0071

> <r_epik_State_Penalty>
-0

> <r_epik_Charging_Adjusted_Penalty>
0

> <i_epik_Tot_Q>
0

> <i_epik_Tot_abs_Q>
0

> <s_lp_Force_Field>
S-OPLS

> <r_lp_Energy>
20.7547

> <b_lp_Chiralities_Consistent>
1

> <s_lp_Variant>
lig_336-1

> <s_i_glide_gridfile>
glide-grid_5TBM-HIF2a

> <i_i_glide_lignum>
29

> <i_i_glide_rotatable_bonds>
4

> <r_i_docking_score>
-11.4091

> <r_i_glide_ligand_efficiency>
-0.438812

> <r_i_glide_ligand_efficiency_sa>
-1.29998

> <r_i_glide_ligand_efficiency_ln>
-2.67939

> <r_i_glide_gscore>
-11.4091

> <r_i_glide_lipo>
-4.41511

> <r_i_glide_hbond>
0

> <r_i_glide_metal>
-0

> <r_i_glide_rewards>
-3.41734

> <r_i_glide_evdw>
-54.0952

> <r_i_glide_ecoul>
-9.3225

> <r_i_glide_erotb>
0.526476

> <r_i_glide_esite>
0

> <r_i_glide_emodel>
-103.974

> <r_i_glide_energy>
-63.4177

> <r_i_glide_einternal>
3.1691e-05

> <i_i_glide_confnum>
1

> <i_i_glide_posenum>
1

> <r_i_glide_eff_state_penalty>
-0

> <r_i_glide_rmsd>
0.0732592

> <s_glide_core_constrain_type>
snapped_core_restrain
$$$$