lig_CHEMBL1085692
                    3D
 Schrodinger Suite 2021-1.
 64 67  0  0  1  0            999 V2000
   34.2536    7.0350   16.2411 H   0  0  0  0  0  0
   33.2683    7.3700   15.9487 C   0  0  0  0  0  0
   32.1380    6.9701   16.6862 C   0  0  0  0  0  0
   32.2581    6.3246   17.5446 H   0  0  0  0  0  0
   30.8512    7.4011   16.3057 C   0  0  0  0  0  0
   29.9894    7.0913   16.8771 H   0  0  0  0  0  0
   30.6959    8.2486   15.1896 C   0  0  0  0  0  0
   29.3244    8.7752   14.7994 C   0  0  2  0  0  0
   28.5925    8.3432   15.4836 H   0  0  0  0  0  0
   28.9642    8.3151   13.4627 N   0  0  0  0  0  0
   29.1446    7.3410   13.2465 H   0  0  0  0  0  0
   27.9437    8.9754   12.7620 C   0  0  0  0  0  0
   27.4827    8.4378   11.5440 C   0  0  0  0  0  0
   27.9672    7.2728   11.1186 F   0  0  0  0  0  0
   26.5093    9.0775   10.7673 C   0  0  0  0  0  0
   26.1769    8.6486    9.8334 H   0  0  0  0  0  0
   25.9999   10.2918   11.2188 C   0  0  0  0  0  0
   24.7673   11.2845   10.2101 Br  0  0  0  0  0  0
   26.4055   10.8322   12.4499 C   0  0  0  0  0  0
   25.9867   11.7702   12.7825 H   0  0  0  0  0  0
   27.3847   10.1863   13.2231 C   0  0  0  0  0  0
   27.8501   10.8272   14.5129 C   0  0  1  0  0  0
   27.8943   11.9052   14.3469 H   0  0  0  0  0  0
   26.9118   10.5641   15.5525 O   0  0  0  0  0  0
   27.1934   11.2453   16.7675 C   0  0  1  0  0  0
   27.2892   12.3095   16.5431 H   0  0  0  0  0  0
   25.9649   11.0791   17.6948 C   0  0  0  0  0  0
   25.6798   12.0545   18.0928 H   0  0  0  0  0  0
   25.1013   10.7429   17.1199 H   0  0  0  0  0  0
   26.1841   10.1475   18.7884 N   0  0  0  0  0  0
   26.0853    9.1692   18.5651 H   0  0  0  0  0  0
   26.5491   10.4910   20.0315 C   0  0  0  0  0  0
   26.7465   11.6593   20.3844 O   0  0  0  0  0  0
   26.7701    9.3187   20.9957 C   0  0  0  0  0  0
   27.5068    8.6565   20.5431 H   0  0  0  0  0  0
   27.2416    9.7084   21.8988 H   0  0  0  0  0  0
   25.5036    8.5097   21.4008 C   0  0  0  0  0  0
   25.8273    7.7594   22.1227 H   0  0  0  0  0  0
   24.8205    9.1605   21.9475 H   0  0  0  0  0  0
   24.7324    7.7987   20.2528 C   0  0  0  0  0  0
   24.0491    8.5048   19.7778 H   0  0  0  0  0  0
   25.4340    7.5048   19.4738 H   0  0  0  0  0  0
   23.9675    6.5864   20.6741 N   0  3  0  0  0  0
   22.9073    6.8715   21.6663 C   0  0  0  0  0  0
   22.1661    7.5612   21.2612 H   0  0  0  0  0  0
   23.3217    7.3064   22.5751 H   0  0  0  0  0  0
   22.3961    5.9522   21.9529 H   0  0  0  0  0  0
   23.4412    5.8301   19.5146 C   0  0  0  0  0  0
   22.7174    6.4195   18.9501 H   0  0  0  0  0  0
   22.9507    4.9126   19.8431 H   0  0  0  0  0  0
   24.2482    5.5415   18.8400 H   0  0  0  0  0  0
   28.5406   10.7216   17.3145 C   0  0  0  0  0  0
   28.8053   11.2446   18.2342 H   0  0  0  0  0  0
   28.4647    9.6618   17.5608 H   0  0  0  0  0  0
   29.6525   10.9078   16.2815 C   0  0  0  0  0  0
   29.8527   11.9745   16.1676 H   0  0  0  0  0  0
   30.5766   10.4689   16.6532 H   0  0  0  0  0  0
   29.2500   10.3226   14.9112 C   0  0  1  0  0  0
   29.9536   10.7258   14.1810 H   0  0  0  0  0  0
   31.8294    8.6233   14.4374 C   0  0  0  0  0  0
   31.7181    9.2574   13.5703 H   0  0  0  0  0  0
   33.1105    8.1845   14.8142 C   0  0  0  0  0  0
   33.9678    8.4816   14.2323 H   0  0  0  0  0  0
   24.6160    5.9331   21.1170 H   0  0  0  0  0  0
  1  2  1  0  0  0
  2 62  1  0  0  0
  2  3  2  0  0  0
  3  4  1  0  0  0
  3  5  1  0  0  0
  5  6  1  0  0  0
  5  7  2  0  0  0
  7  8  1  0  0  0
  7 60  1  0  0  0
  8 58  1  0  0  0
  8  9  1  0  0  0
  8 10  1  0  0  0
 10 11  1  0  0  0
 10 12  1  0  0  0
 12 21  1  0  0  0
 12 13  2  0  0  0
 13 14  1  0  0  0
 13 15  1  0  0  0
 15 16  1  0  0  0
 15 17  2  0  0  0
 17 18  1  0  0  0
 17 19  1  0  0  0
 19 20  1  0  0  0
 19 21  2  0  0  0
 21 22  1  0  0  0
 22 58  1  0  0  0
 22 23  1  0  0  0
 22 24  1  0  0  0
 24 25  1  0  0  0
 25 26  1  0  0  0
 25 27  1  0  0  0
 25 52  1  0  0  0
 27 28  1  0  0  0
 27 29  1  0  0  0
 27 30  1  0  0  0
 30 31  1  0  0  0
 30 32  1  0  0  0
 32 33  2  0  0  0
 32 34  1  0  0  0
 34 35  1  0  0  0
 34 36  1  0  0  0
 34 37  1  0  0  0
 37 38  1  0  0  0
 37 39  1  0  0  0
 37 40  1  0  0  0
 40 41  1  0  0  0
 40 42  1  0  0  0
 40 43  1  0  0  0
 43 44  1  0  0  0
 43 48  1  0  0  0
 43 64  1  0  0  0
 44 45  1  0  0  0
 44 46  1  0  0  0
 44 47  1  0  0  0
 48 49  1  0  0  0
 48 50  1  0  0  0
 48 51  1  0  0  0
 52 53  1  0  0  0
 52 54  1  0  0  0
 52 55  1  0  0  0
 55 56  1  0  0  0
 55 57  1  0  0  0
 55 58  1  0  0  0
 58 59  1  0  0  0
 60 61  1  0  0  0
 60 62  2  0  0  0
 62 63  1  0  0  0
M  CHG  1  43   1
M  END
> <s_m_source_file>
ligprep_eg5.smi

> <i_m_source_file_index>
18

> <i_lp_mmshare_version>
53161

> <i_f3d_flags>
0

> <s_epik_input>
RmMxW2NIXWMoQnIpW2NIXWMoYzEyKVtDQEBIXTNbQ0BIXShbQ0BASF0oW05IXTIpYzRbY0hdW2NIXVtjSF1bY0hdW2NIXTQpW0NIMl1bQ0gyXVtDQEBIXShPMylbQ0gyXVtOSF1DKD1PKVtDSDJdW0NIMl1bQ0gyXU4oW0NIM10pW0NIM10=

> <s_epik_cmdline>
J2VwaWtfcHl0aG9uJywgJy1waHQnLCAnMC4wJywgJy1waCcsICc3LjQnLCAnLXRuJywgJzgnLCAnLW1hJywgJzUwMCcsICctaW1hZScsICc8aW5maWxlLm1hZT4nLCAnLW9tYWUnLCAnPG91dGZpbGUubWFlPic=

> <r_lp_tautomer_probability>
1

> <r_epik_Ionization_Penalty>
0.0076

> <r_epik_Ionization_Penalty_Charging>
0.0076

> <r_epik_Ionization_Penalty_Neutral>
0

> <r_epik_State_Penalty>
-0

> <r_epik_Charging_Adjusted_Penalty>
0.00755766

> <i_epik_Tot_Q>
1

> <i_epik_Tot_abs_Q>
1

> <s_lp_Force_Field>
S-OPLS

> <r_lp_Energy>
47.4626

> <b_lp_Chiralities_Consistent>
1

> <s_lp_Variant>
lig_CHEMBL1085692-1

> <s_i_glide_gridfile>
glide-grid_3L9H-EG5

> <i_i_glide_lignum>
19

> <i_i_glide_rotatable_bonds>
8

> <r_i_docking_score>
-7.94177

> <r_i_glide_ligand_efficiency>
-0.24818

> <r_i_glide_ligand_efficiency_sa>
-0.787923

> <r_i_glide_ligand_efficiency_ln>
-1.77838

> <r_i_glide_gscore>
-7.94177

> <r_i_glide_lipo>
-4.61918

> <r_i_glide_hbond>
-0.29809

> <r_i_glide_metal>
-0

> <r_i_glide_rewards>
-0.220784

> <r_i_glide_evdw>
-45.4755

> <r_i_glide_ecoul>
-6.75381

> <r_i_glide_erotb>
0.560427

> <r_i_glide_esite>
-0.0772968

> <r_i_glide_emodel>
-80.1451

> <r_i_glide_energy>
-52.2293

> <r_i_glide_einternal>
3.45421

> <i_i_glide_confnum>
17

> <i_i_glide_posenum>
18

> <r_i_glide_eff_state_penalty>
-0

> <r_i_glide_rmsd>
0.0924686

> <s_glide_core_constrain_type>
snapped_core_restrain
$$$$