lig_3b
                    3D
 Schrodinger Suite 2021-1.
 39 41  0  0  1  0            999 V2000
  -41.1935  -15.3500   15.9408 H   0  0  0  0  0  0
  -40.5448  -14.5539   15.6181 C   0  0  0  0  0  0
  -40.4399  -14.2486   14.2541 C   0  0  0  0  0  0
  -40.9979  -14.8208   13.5248 H   0  0  0  0  0  0
  -39.6255  -13.1805   13.8476 C   0  0  0  0  0  0
  -38.8960  -12.4292   14.8034 C   0  0  0  0  0  0
  -38.9958  -12.7452   16.1777 C   0  0  0  0  0  0
  -38.4683  -12.1645   16.9192 H   0  0  0  0  0  0
  -39.8442  -13.7965   16.5722 C   0  0  0  0  0  0
  -40.0851  -14.0559   17.8773 F   0  0  0  0  0  0
  -38.0463  -11.2958   14.3030 C   0  0  0  0  0  0
  -37.2894  -10.6492   15.0237 O   0  0  0  0  0  0
  -38.1554  -11.0558   12.9923 N   0  0  0  0  0  0
  -37.5890  -10.3046   12.6321 H   0  0  0  0  0  0
  -38.8771  -11.8391   12.0832 C   0  0  0  0  0  0
  -38.7780  -11.5258   10.6320 C   0  0  0  0  0  0
  -39.2773  -12.4421    9.6807 C   0  0  0  0  0  0
  -39.7285  -13.3772    9.9789 H   0  0  0  0  0  0
  -39.2132  -12.1460    8.3110 C   0  0  0  0  0  0
  -39.6233  -12.8611    7.6163 H   0  0  0  0  0  0
  -38.6356  -10.9354    7.8733 C   0  0  0  0  0  0
  -38.6425  -10.5351    6.4022 C   0  0  0  0  0  0
  -39.6921   -9.4386    6.2399 C   0  0  0  0  0  0
  -39.7613   -9.2666    5.1748 H   0  0  0  0  0  0
  -39.4151   -8.5120    6.7510 H   0  0  0  0  0  0
  -40.6664   -9.7561    6.6062 H   0  0  0  0  0  0
  -39.0168  -11.6644    5.4303 C   0  0  0  0  0  0
  -38.2907  -12.4657    5.5098 H   0  0  0  0  0  0
  -40.0234  -12.0546    5.5884 H   0  0  0  0  0  0
  -38.9940  -11.3235    4.3962 H   0  0  0  0  0  0
  -37.2433  -10.0557    5.9705 C   0  0  0  0  0  0
  -36.4955  -10.8059    6.2124 H   0  0  0  0  0  0
  -37.1895   -9.8939    4.8972 H   0  0  0  0  0  0
  -36.9583   -9.1195    6.4470 H   0  0  0  0  0  0
  -38.1342  -10.0255    8.8303 C   0  0  0  0  0  0
  -37.7115   -9.0816    8.5264 H   0  0  0  0  0  0
  -38.1955  -10.3197   10.1957 C   0  0  0  0  0  0
  -37.8093   -9.5986   10.8969 H   0  0  0  0  0  0
  -39.5773  -12.8555   12.4850 N   0  0  0  0  0  0
  1  2  1  0  0  0
  2  9  1  0  0  0
  2  3  2  0  0  0
  3  4  1  0  0  0
  3  5  1  0  0  0
  5 39  1  0  0  0
  5  6  2  0  0  0
  6  7  1  0  0  0
  6 11  1  0  0  0
  7  8  1  0  0  0
  7  9  2  0  0  0
  9 10  1  0  0  0
 11 12  2  0  0  0
 11 13  1  0  0  0
 13 14  1  0  0  0
 13 15  1  0  0  0
 15 16  1  0  0  0
 15 39  2  0  0  0
 16 37  1  0  0  0
 16 17  2  0  0  0
 17 18  1  0  0  0
 17 19  1  0  0  0
 19 20  1  0  0  0
 19 21  2  0  0  0
 21 22  1  0  0  0
 21 35  1  0  0  0
 22 23  1  0  0  0
 22 27  1  0  0  0
 22 31  1  0  0  0
 23 24  1  0  0  0
 23 25  1  0  0  0
 23 26  1  0  0  0
 27 28  1  0  0  0
 27 29  1  0  0  0
 27 30  1  0  0  0
 31 32  1  0  0  0
 31 33  1  0  0  0
 31 34  1  0  0  0
 35 36  1  0  0  0
 35 37  2  0  0  0
 37 38  1  0  0  0
M  END
> <s_m_source_file>
ligprep_tnks2.smi

> <i_m_source_file_index>
4

> <i_lp_mmshare_version>
53161

> <i_f3d_flags>
0

> <s_epik_input>
W2NIXTFbY0hdYyhGKVtjSF1jKGMxMiljKD1PKVtuSF1jKG4yKS1jM1tjSF1bY0hdYyhDKFtDSDNdKShbQ0gzXSlbQ0gzXSlbY0hdW2NIXTM=

> <s_epik_cmdline>
J2VwaWtfcHl0aG9uJywgJy1waHQnLCAnMC4wJywgJy1waCcsICc3LjQnLCAnLXRuJywgJzgnLCAnLW1hJywgJzUwMCcsICctaW1hZScsICc8aW5maWxlLm1hZT4nLCAnLW9tYWUnLCAnPG91dGZpbGUubWFlPic=

> <r_lp_tautomer_probability>
0.883938

> <r_epik_Ionization_Penalty>
0.0324

> <r_epik_Ionization_Penalty_Charging>
0.0324

> <r_epik_Ionization_Penalty_Neutral>
0

> <r_epik_State_Penalty>
0.0643

> <r_epik_Charging_Adjusted_Penalty>
0.0967168

> <i_epik_Tot_Q>
0

> <i_epik_Tot_abs_Q>
0

> <s_lp_Force_Field>
S-OPLS

> <r_lp_Energy>
27.3846

> <b_lp_Chiralities_Consistent>
1

> <s_lp_Variant>
lig_3b-1

> <s_i_glide_gridfile>
glide-grid_4UI5-TNKS2

> <i_i_glide_lignum>
4

> <i_i_glide_rotatable_bonds>
2

> <r_i_docking_score>
-11.7853

> <r_i_glide_ligand_efficiency>
-0.535695

> <r_i_glide_ligand_efficiency_sa>
-1.50104

> <r_i_glide_ligand_efficiency_ln>
-2.88076

> <r_i_glide_gscore>
-11.8496

> <r_i_glide_lipo>
-4.5337

> <r_i_glide_hbond>
-0.806367

> <r_i_glide_metal>
-0

> <r_i_glide_rewards>
-3.33914

> <r_i_glide_evdw>
-42.2374

> <r_i_glide_ecoul>
-8.99461

> <r_i_glide_erotb>
0.292038

> <r_i_glide_esite>
-0.00136096

> <r_i_glide_emodel>
-74.6359

> <r_i_glide_energy>
-51.232

> <r_i_glide_einternal>
0.495441

> <i_i_glide_confnum>
1

> <i_i_glide_posenum>
3

> <r_i_glide_eff_state_penalty>
0.0643

> <r_i_glide_rmsd>
0.0878848

> <s_glide_core_constrain_type>
snapped_core_restrain
$$$$