lig_35
                    3D
 Schrodinger Suite 2021-1.
 48 51  0  0  1  0            999 V2000
   29.5621   16.0766    8.2897 H   0  0  0  0  0  0
   29.0777   16.7577    8.9731 C   0  0  0  0  0  0
   29.8011   17.8488    9.3000 N   0  0  0  0  0  0
   29.2422   18.7527   10.1241 C   0  0  0  0  0  0
   29.8360   19.6299   10.3332 H   0  0  0  0  0  0
   27.9583   18.5983   10.6730 C   0  0  0  0  0  0
   27.3477   19.6763   11.5403 C   0  0  0  0  0  0
   26.8063   19.1540   12.6395 F   0  0  0  0  0  0
   26.4063   20.2484   10.8123 F   0  0  0  0  0  0
   28.2136   20.6268   11.8925 F   0  0  0  0  0  0
   27.2175   17.4470   10.3310 C   0  0  0  0  0  0
   26.2213   17.3100   10.7259 H   0  0  0  0  0  0
   27.7716   16.4942    9.4461 C   0  0  0  0  0  0
   27.0299   15.2909    9.0060 C   0  0  0  0  0  0
   27.7111   14.0782    8.7614 C   0  0  0  0  0  0
   28.7779   14.0121    8.9116 H   0  0  0  0  0  0
   27.0235   12.9320    8.3305 C   0  0  0  0  0  0
   27.5660   12.0119    8.1667 H   0  0  0  0  0  0
   25.6327   12.9652    8.1345 C   0  0  0  0  0  0
   25.0213   11.7945    7.7427 O   0  0  0  0  0  0
   23.6183   11.6731    7.9611 C   0  0  0  0  0  0
   23.3374   11.4310    9.4620 C   0  0  0  0  0  0
   22.2664   11.3772    9.6577 H   0  0  0  0  0  0
   23.7778   10.4939    9.8007 H   0  0  0  0  0  0
   23.7408   12.2207   10.0969 H   0  0  0  0  0  0
   23.1864   10.4341    7.1601 C   0  0  0  0  0  0
   22.1175   10.2473    7.2653 H   0  0  0  0  0  0
   23.3997   10.5569    6.0988 H   0  0  0  0  0  0
   23.7179    9.5434    7.4960 H   0  0  0  0  0  0
   22.9105   12.9232    7.4033 C   0  0  0  0  0  0
   23.1019   12.9478    6.3293 H   0  0  0  0  0  0
   21.8279   12.8356    7.5080 H   0  0  0  0  0  0
   23.4234   14.2401    8.0294 C   0  0  1  0  0  0
   23.0525   15.4383    7.1386 C   0  0  0  0  0  0
   23.4673   15.6097    5.9905 O   0  0  0  0  0  0
   22.2180   16.2224    7.8112 N   0  0  0  0  0  0
   21.6192   17.4794    7.3776 C   0  0  0  0  0  0
   21.8057   18.2488    8.1219 H   0  0  0  0  0  0
   22.0322   17.8211    6.4284 H   0  0  0  0  0  0
   20.5407   17.3718    7.2612 H   0  0  0  0  0  0
   22.0090   15.6511    9.0450 C   0  0  0  0  0  0
   21.1606   16.2786    9.9311 N   0  0  0  0  0  0
   21.1148   15.9898   10.9072 H   0  0  0  0  0  0
   22.6614   14.5604    9.2274 N   0  0  0  0  0  0
   24.9278   14.1806    8.3264 C   0  0  0  0  0  0
   25.6329   15.3217    8.7855 C   0  0  0  0  0  0
   25.0911   16.2418    8.9494 H   0  0  0  0  0  0
   20.7308   17.1866    9.7943 H   0  0  0  0  0  0
  1  2  1  0  0  0
  2 13  1  0  0  0
  2  3  2  0  0  0
  3  4  1  0  0  0
  4  5  1  0  0  0
  4  6  2  0  0  0
  6  7  1  0  0  0
  6 11  1  0  0  0
  7  8  1  0  0  0
  7  9  1  0  0  0
  7 10  1  0  0  0
 11 12  1  0  0  0
 11 13  2  0  0  0
 13 14  1  0  0  0
 14 46  1  0  0  0
 14 15  2  0  0  0
 15 16  1  0  0  0
 15 17  1  0  0  0
 17 18  1  0  0  0
 17 19  2  0  0  0
 19 45  1  0  0  0
 19 20  1  0  0  0
 20 21  1  0  0  0
 21 22  1  0  0  0
 21 26  1  0  0  0
 21 30  1  0  0  0
 22 23  1  0  0  0
 22 24  1  0  0  0
 22 25  1  0  0  0
 26 27  1  0  0  0
 26 28  1  0  0  0
 26 29  1  0  0  0
 30 31  1  0  0  0
 30 32  1  0  0  0
 30 33  1  0  0  0
 33 44  1  0  0  0
 33 34  1  0  0  0
 33 45  1  0  0  0
 34 35  2  0  0  0
 34 36  1  0  0  0
 36 37  1  0  0  0
 36 41  1  0  0  0
 37 38  1  0  0  0
 37 39  1  0  0  0
 37 40  1  0  0  0
 41 42  1  0  0  0
 41 44  2  0  0  0
 42 43  1  0  0  0
 42 48  1  0  0  0
 45 46  2  0  0  0
 46 47  1  0  0  0
M  END
> <s_m_source_file>
ligprep_bace_hunt.smi

> <i_m_source_file_index>
26

> <i_lp_mmshare_version>
53161

> <i_f3d_flags>
0

> <s_epik_input>
RkMoRikoRiljMVtjSF1uW2NIXWMoW2NIXTEpLWMoW2NIXTIpW2NIXVtjSF1jKE9DKFtDSDNdKShbQ0gzXSlbQ0gyXTMpYzJbQ0BAXTM0Qyg9TylOKFtDSDNdKUMoPU40KVtOSDJd

> <s_epik_cmdline>
J2VwaWtfcHl0aG9uJywgJy1waHQnLCAnMC4wJywgJy1waCcsICc3LjQnLCAnLXRuJywgJzgnLCAnLW1hJywgJzUwMCcsICctaW1hZScsICc8aW5maWxlLm1hZT4nLCAnLW9tYWUnLCAnPG91dGZpbGUubWFlPic=

> <r_lp_tautomer_probability>
1

> <r_epik_Ionization_Penalty>
1.0455

> <r_epik_Ionization_Penalty_Charging>
0

> <r_epik_Ionization_Penalty_Neutral>
1.0455

> <r_epik_State_Penalty>
-0

> <r_epik_Charging_Adjusted_Penalty>
0

> <i_epik_Tot_Q>
0

> <i_epik_Tot_abs_Q>
0

> <s_epik_Chemistry_Notes>
This compound has an imine and may undergo hydrolysis.

> <s_lp_Force_Field>
S-OPLS

> <r_lp_Energy>
35.8242

> <b_lp_Chiralities_Consistent>
1

> <s_lp_Variant>
lig_35-1

> <s_i_glide_gridfile>
glide-grid_4JPC-BACE_HUNT

> <i_i_glide_lignum>
26

> <i_i_glide_rotatable_bonds>
2

> <r_i_docking_score>
-7.26683

> <r_i_glide_ligand_efficiency>
-0.25058

> <r_i_glide_ligand_efficiency_sa>
-0.769863

> <r_i_glide_ligand_efficiency_ln>
-1.66392

> <r_i_glide_gscore>
-7.26683

> <r_i_glide_lipo>
-2.4806

> <r_i_glide_hbond>
-0.232553

> <r_i_glide_metal>
-0

> <r_i_glide_rewards>
-1.65846

> <r_i_glide_evdw>
-40.344

> <r_i_glide_ecoul>
-5.67208

> <r_i_glide_erotb>
0.120118

> <r_i_glide_esite>
-0.147321

> <r_i_glide_emodel>
-66.1678

> <r_i_glide_energy>
-46.0161

> <r_i_glide_einternal>
0.087635

> <i_i_glide_confnum>
13

> <i_i_glide_posenum>
14

> <r_i_glide_eff_state_penalty>
-0

> <r_i_glide_rmsd>
0.0975541

> <s_glide_core_constrain_type>
snapped_core_restrain
$$$$