lig_45
                    3D
 Schrodinger Suite 2021-1.
 49 53  0  0  1  0            999 V2000
   -4.4444   14.2469   -5.7149 H   0  0  0  0  0  0
   -3.9076   13.4279   -6.1550 C   0  0  0  0  0  0
   -2.5959   13.4531   -6.2045 N   0  0  0  0  0  0
   -2.2230   12.3215   -6.8609 N   0  0  0  0  0  0
   -0.8152   12.0461   -7.0472 C   0  0  0  0  0  0
   -0.5322   12.3121   -8.0682 H   0  0  0  0  0  0
   -0.2214   12.6295   -6.3415 H   0  0  0  0  0  0
   -0.6065   10.9859   -6.8886 H   0  0  0  0  0  0
   -3.3089   11.5531   -7.2627 C   0  0  0  0  0  0
   -4.4422   12.2869   -6.8326 C   0  0  0  0  0  0
   -5.7210   11.7539   -7.1030 C   0  0  0  0  0  0
   -6.6009   12.2911   -6.7813 H   0  0  0  0  0  0
   -5.8661   10.5117   -7.7616 C   0  0  0  0  0  0
   -7.2438    9.9332   -7.9905 C   0  0  0  0  0  0
   -7.9738   10.6223   -7.5727 H   0  0  0  0  0  0
   -7.3108    9.0174   -7.4059 H   0  0  0  0  0  0
   -7.5558    9.6839   -9.4321 C   0  0  0  0  0  0
   -8.1583    8.5838   -9.8055 N   0  0  0  0  0  0
   -8.3547    8.6931  -11.1493 N   0  0  0  0  0  0
   -8.8268    7.9552  -11.6561 H   0  0  0  0  0  0
   -7.8504    9.8649  -11.6799 C   0  0  0  0  0  0
   -7.3017   10.5344  -10.5553 C   0  0  0  0  0  0
   -6.6697   11.7709  -10.7764 C   0  0  0  0  0  0
   -6.2343   12.2919   -9.9372 H   0  0  0  0  0  0
   -6.4906   12.2820  -12.0714 C   0  0  0  0  0  0
   -5.6729   13.5216  -12.2510 C   0  0  0  0  0  0
   -6.0277   14.4041  -13.0258 O   0  0  0  0  0  0
   -4.4935   13.6659  -11.5255 N   0  0  0  0  0  0
   -3.6993   12.7463  -10.7316 C   0  0  0  0  0  0
   -3.0967   12.1097  -11.3752 H   0  0  0  0  0  0
   -4.1571   12.2236   -9.8925 H   0  0  0  0  0  0
   -2.9340   14.0171  -10.3048 C   0  0  0  0  0  0
   -1.8496   13.9221  -10.4060 H   0  0  0  0  0  0
   -3.2460   14.5164   -8.9946 O   0  0  0  0  0  0
   -4.6053   14.8337   -8.7494 C   0  0  0  0  0  0
   -4.8037   15.1882   -7.7354 H   0  0  0  0  0  0
   -5.2474   13.9795   -8.9082 H   0  0  0  0  0  0
   -4.9289   15.6422   -9.3858 H   0  0  0  0  0  0
   -3.5669   14.7714  -11.5162 C   0  0  0  0  0  0
   -3.9933   15.7588  -11.2942 H   0  0  0  0  0  0
   -2.9830   14.7416  -12.4373 H   0  0  0  0  0  0
   -7.1251   11.6443  -13.1650 C   0  0  0  0  0  0
   -7.0716   12.0689  -14.1574 H   0  0  0  0  0  0
   -7.8263   10.4363  -12.9669 C   0  0  0  0  0  0
   -8.3005    9.9334  -13.8009 H   0  0  0  0  0  0
   -4.7167    9.8091   -8.1675 C   0  0  0  0  0  0
   -4.8185    8.8838   -8.7091 H   0  0  0  0  0  0
   -3.4318   10.3263   -7.9320 C   0  0  0  0  0  0
   -2.5513    9.7801   -8.2331 H   0  0  0  0  0  0
  1  2  1  0  0  0
  2 10  1  0  0  0
  2  3  2  0  0  0
  3  4  1  0  0  0
  4  5  1  0  0  0
  4  9  1  0  0  0
  5  6  1  0  0  0
  5  7  1  0  0  0
  5  8  1  0  0  0
  9 48  1  0  0  0
  9 10  2  0  0  0
 10 11  1  0  0  0
 11 12  1  0  0  0
 11 13  2  0  0  0
 13 14  1  0  0  0
 13 46  1  0  0  0
 14 15  1  0  0  0
 14 16  1  0  0  0
 14 17  1  0  0  0
 17 22  1  0  0  0
 17 18  2  0  0  0
 18 19  1  0  0  0
 19 20  1  0  0  0
 19 21  1  0  0  0
 21 44  1  0  0  0
 21 22  2  0  0  0
 22 23  1  0  0  0
 23 24  1  0  0  0
 23 25  2  0  0  0
 25 26  1  0  0  0
 25 42  1  0  0  0
 26 27  2  0  0  0
 26 28  1  0  0  0
 28 39  1  0  0  0
 28 29  1  0  0  0
 29 30  1  0  0  0
 29 31  1  0  0  0
 29 32  1  0  0  0
 32 33  1  0  0  0
 32 34  1  0  0  0
 32 39  1  0  0  0
 34 35  1  0  0  0
 35 36  1  0  0  0
 35 37  1  0  0  0
 35 38  1  0  0  0
 39 40  1  0  0  0
 39 41  1  0  0  0
 42 43  1  0  0  0
 42 44  2  0  0  0
 44 45  1  0  0  0
 46 47  1  0  0  0
 46 48  2  0  0  0
 48 49  1  0  0  0
M  END
> <s_m_source_file>
ligprep_cdk8.smi

> <i_m_source_file_index>
33

> <i_lp_mmshare_version>
53161

> <i_f3d_flags>
0

> <s_epik_input>
W0NIM11uMW5bY0hdYyhjMTIpW2NIXWMoW2NIXVtjSF0yKVtDSDJdYyhuW25IXTMpYyhjMzQpW2NIXWMoW2NIXVtjSF00KUMoPU8pTjVbQ0gyXVtDSF0oW0NIMl01KU9bQ0gzXQ==

> <s_epik_cmdline>
J2VwaWtfcHl0aG9uJywgJy1waHQnLCAnMC4wJywgJy1waCcsICc3LjQnLCAnLXRuJywgJzgnLCAnLW1hJywgJzUwMCcsICctaW1hZScsICc8aW5maWxlLm1hZT4nLCAnLW9tYWUnLCAnPG91dGZpbGUubWFlPic=

> <r_lp_tautomer_probability>
1

> <r_epik_Ionization_Penalty>
0

> <r_epik_Ionization_Penalty_Charging>
0

> <r_epik_Ionization_Penalty_Neutral>
0

> <r_epik_State_Penalty>
-0

> <r_epik_Charging_Adjusted_Penalty>
0

> <i_epik_Tot_Q>
0

> <i_epik_Tot_abs_Q>
0

> <s_lp_Force_Field>
S-OPLS

> <r_lp_Energy>
30.1798

> <b_lp_Chiralities_Consistent>
1

> <s_lp_Variant>
lig_45-1

> <s_i_glide_gridfile>
glide-grid_5HNB-CDK8

> <i_i_glide_lignum>
33

> <i_i_glide_rotatable_bonds>
5

> <r_i_docking_score>
-9.96935

> <r_i_glide_ligand_efficiency>
-0.356048

> <r_i_glide_ligand_efficiency_sa>
-1.08117

> <r_i_glide_ligand_efficiency_ln>
-2.30122

> <r_i_glide_gscore>
-9.96935

> <r_i_glide_lipo>
-4.22554

> <r_i_glide_hbond>
-0.593935

> <r_i_glide_metal>
-0

> <r_i_glide_rewards>
-2.50468

> <r_i_glide_evdw>
-45.3493

> <r_i_glide_ecoul>
-5.08046

> <r_i_glide_erotb>
0.384345

> <r_i_glide_esite>
0

> <r_i_glide_emodel>
-69.4783

> <r_i_glide_energy>
-50.4298

> <r_i_glide_einternal>
24.2931

> <i_i_glide_confnum>
1

> <i_i_glide_posenum>
4

> <r_i_glide_eff_state_penalty>
-0

> <r_i_glide_rmsd>
0.0923385

> <s_glide_core_constrain_type>
snapped_core_restrain
$$$$