lig_20669_2qbr
                    3D
 Schrodinger Suite 2021-1.
 42 44  0  0  1  0            999 V2000
   52.3426    5.6762    5.4260 H   0  0  0  0  0  0
   51.6667    6.1348    4.7211 C   0  0  0  0  0  0
   50.2768    5.9570    4.8558 C   0  0  0  0  0  0
   49.4024    6.5542    3.9294 C   0  0  0  0  0  0
   49.9199    7.3168    2.8597 C   0  0  0  0  0  0
   51.3061    7.5019    2.7237 C   0  0  0  0  0  0
   52.1708    6.9140    3.6625 C   0  0  0  0  0  0
   53.2249    7.0657    3.5555 H   0  0  0  0  0  0
   51.7057    8.0755    1.8998 H   0  0  0  0  0  0
   48.9893    7.8286    1.7969 C   0  0  0  0  0  0
   48.0410    7.3159    1.9541 H   0  0  0  0  0  0
   49.3593    7.4888    0.8282 H   0  0  0  0  0  0
   48.7609    9.2656    1.7112 N   0  0  0  0  0  0
   49.3318    9.8585    2.2997 H   0  0  0  0  0  0
   47.5205    9.7631    1.2686 C   0  0  0  0  0  0
   46.5325    8.9646    0.6462 C   0  0  0  0  0  0
   45.2837    9.5199    0.3038 C   0  0  0  0  0  0
   45.0094   10.8760    0.5750 C   0  0  0  0  0  0
   45.9897   11.7034    1.1690 C   0  0  0  0  0  0
   47.2442   11.1280    1.4829 C   0  0  0  0  0  0
   48.0233   11.7371    1.9108 H   0  0  0  0  0  0
   45.7103   13.1081    1.4939 C   0  0  0  0  0  0
   46.1815   13.8851    2.5227 C   0  0  0  0  0  0
   45.7043   15.2172    2.5492 C   0  0  0  0  0  0
   44.8220   15.4817    1.5347 C   0  0  0  0  0  0
   44.5927   14.0590    0.5270 S   0  0  0  0  0  0
   44.0792   16.7217    1.2134 C   0  0  0  0  0  0
   43.5198   16.8468    0.1044 O   0  0  0  0  0  0
   44.0361   17.6370    2.0688 O   0  5  0  0  0  0
   46.0236   16.0933    3.5156 O   0  0  0  0  0  0
   47.2480   16.7816    3.3522 C   0  0  0  0  0  0
   47.1402   17.5508    2.5853 H   0  0  0  0  0  0
   48.0441   16.1062    3.0365 H   0  0  0  0  0  0
   47.6346   17.4306    4.6818 C   0  0  0  0  0  0
   48.7450   18.0096    4.7166 O   0  0  0  0  0  0
   46.8243   17.3396    5.6408 O   0  5  0  0  0  0
   47.3301   13.2858    3.9156 Br  0  0  0  0  0  0
   44.0365   11.2750    0.3269 H   0  0  0  0  0  0
   44.5311    8.9007   -0.1603 H   0  0  0  0  0  0
   46.7078    7.9220    0.4280 H   0  0  0  0  0  0
   48.3365    6.3968    4.0263 H   0  0  0  0  0  0
   49.8829    5.3590    5.6635 H   0  0  0  0  0  0
  1  2  1  0  0  0
  2  7  1  0  0  0
  2  3  2  0  0  0
  3  4  1  0  0  0
  3 42  1  0  0  0
  4  5  2  0  0  0
  4 41  1  0  0  0
  5  6  1  0  0  0
  5 10  1  0  0  0
  6  7  2  0  0  0
  6  9  1  0  0  0
  7  8  1  0  0  0
 10 11  1  0  0  0
 10 12  1  0  0  0
 10 13  1  0  0  0
 13 14  1  0  0  0
 13 15  1  0  0  0
 15 20  1  0  0  0
 15 16  2  0  0  0
 16 17  1  0  0  0
 16 40  1  0  0  0
 17 18  2  0  0  0
 17 39  1  0  0  0
 18 19  1  0  0  0
 18 38  1  0  0  0
 19 20  2  0  0  0
 19 22  1  0  0  0
 20 21  1  0  0  0
 22 26  1  0  0  0
 22 23  2  0  0  0
 23 24  1  0  0  0
 23 37  1  0  0  0
 24 25  2  0  0  0
 24 30  1  0  0  0
 25 26  1  0  0  0
 25 27  1  0  0  0
 27 28  2  0  0  0
 27 29  1  0  0  0
 30 31  1  0  0  0
 31 32  1  0  0  0
 31 33  1  0  0  0
 31 34  1  0  0  0
 34 35  2  0  0  0
 34 36  1  0  0  0
M  CHG  2  29  -1  36  -1
M  END
> <s_m_source_file>
ligprep_ptp1b.smi

> <i_m_source_file_index>
2

> <i_lp_mmshare_version>
53161

> <i_f3d_flags>
0

> <s_epik_input>
W2NIXTFbY0hdW2NIXVtjSF1bY0hdYzFbQ0gyXVtOSF1jMltjSF1bY0hdW2NIXWMoW2NIXTIpLWMzYyhCciljKGMoczMpQyg9TylbT0hdKU9bQ0gyXUMoPU8pW09IXQ==

> <s_epik_cmdline>
J2VwaWtfcHl0aG9uJywgJy1waHQnLCAnMC4wJywgJy1waCcsICc3LjQnLCAnLXRuJywgJzgnLCAnLW1hJywgJzUwMCcsICctaW1hZScsICc8aW5maWxlLm1hZT4nLCAnLW9tYWUnLCAnPG91dGZpbGUubWFlPic=

> <r_lp_tautomer_probability>
1

> <r_epik_Ionization_Penalty>
0.0002

> <r_epik_Ionization_Penalty_Charging>
0.0001

> <r_epik_Ionization_Penalty_Neutral>
0.0001

> <r_epik_State_Penalty>
-0

> <r_epik_Charging_Adjusted_Penalty>
9.21585e-05

> <i_epik_Tot_Q>
-2

> <i_epik_Tot_abs_Q>
2

> <s_lp_Force_Field>
S-OPLS

> <r_lp_Energy>
57.9546

> <b_lp_Chiralities_Consistent>
1

> <s_lp_Variant>
lig_20669_2qbr-1

> <s_i_glide_gridfile>
glide-grid_2QBS-PTP1B

> <i_i_glide_lignum>
2

> <i_i_glide_rotatable_bonds>
8

> <r_i_docking_score>
-8.82329

> <r_i_glide_ligand_efficiency>
-0.315118

> <r_i_glide_ligand_efficiency_sa>
-0.956883

> <r_i_glide_ligand_efficiency_ln>
-2.03668

> <r_i_glide_gscore>
-8.82329

> <r_i_glide_lipo>
-1.75268

> <r_i_glide_hbond>
-1.33721

> <r_i_glide_metal>
-0

> <r_i_glide_rewards>
-0.270375

> <r_i_glide_evdw>
-42.6402

> <r_i_glide_ecoul>
-29.4936

> <r_i_glide_erotb>
0.75997

> <r_i_glide_esite>
-0.0909944

> <r_i_glide_emodel>
-137.675

> <r_i_glide_energy>
-72.1338

> <r_i_glide_einternal>
0.916827

> <i_i_glide_confnum>
9

> <i_i_glide_posenum>
1

> <r_i_glide_eff_state_penalty>
-0

> <r_i_glide_rmsd>
0.102552

> <s_glide_core_constrain_type>
snapped_core_restrain
$$$$