lig_17
                    3D
 Schrodinger Suite 2021-1.
 46 49  0  0  1  0            999 V2000
   29.4470   19.8567   10.4972 H   0  0  0  0  0  0
   28.9884   18.9121   10.2411 C   0  0  0  0  0  0
   29.5526   18.1081    9.2382 C   0  0  0  0  0  0
   30.8062   18.8126    8.2936 Cl  0  0  0  0  0  0
   28.9280   16.9042    8.8580 C   0  0  0  0  0  0
   29.3448   16.3274    8.0442 H   0  0  0  0  0  0
   27.7038   16.5121    9.4510 C   0  0  0  0  0  0
   26.9915   15.3033    8.9933 C   0  0  0  0  0  0
   27.6905   14.1074    8.7310 C   0  0  0  0  0  0
   28.7599   14.0625    8.8765 H   0  0  0  0  0  0
   27.0105   12.9569    8.2957 C   0  0  0  0  0  0
   27.5632   12.0442    8.1255 H   0  0  0  0  0  0
   25.6167   12.9783    8.1011 C   0  0  0  0  0  0
   25.0110   11.8025    7.7136 O   0  0  0  0  0  0
   23.6075   11.6745    7.9367 C   0  0  0  0  0  0
   23.3373   11.4312    9.4402 C   0  0  0  0  0  0
   22.2681   11.3756    9.6424 H   0  0  0  0  0  0
   23.7814   10.4946    9.7775 H   0  0  0  0  0  0
   23.7455   12.2214   10.0708 H   0  0  0  0  0  0
   23.1748   10.4337    7.1386 C   0  0  0  0  0  0
   22.1083   10.2395    7.2535 H   0  0  0  0  0  0
   23.3739   10.5605    6.0752 H   0  0  0  0  0  0
   23.7117    9.5445    7.4661 H   0  0  0  0  0  0
   22.8890   12.9221    7.3808 C   0  0  0  0  0  0
   21.8071   12.8285    7.4899 H   0  0  0  0  0  0
   23.0708   12.9530    6.3042 H   0  0  0  0  0  0
   23.3946   14.2409    8.0087 C   0  0  1  0  0  0
   23.0170   15.4437    7.1249 C   0  0  0  0  0  0
   23.4287   15.6198    5.9764 O   0  0  0  0  0  0
   22.1866   16.2275    7.8043 N   0  0  0  0  0  0
   21.5910   17.4931    7.3838 C   0  0  0  0  0  0
   22.0037   17.8443    6.4369 H   0  0  0  0  0  0
   20.5098   17.3908    7.2715 H   0  0  0  0  0  0
   21.7884   18.2506    8.1381 H   0  0  0  0  0  0
   21.9833   15.6490    9.0373 C   0  0  0  0  0  0
   21.1457   16.2759    9.9319 N   0  0  0  0  0  0
   21.1086   15.9885   10.9095 H   0  0  0  0  0  0
   22.6325   14.5528    9.2085 N   0  0  0  0  0  0
   24.9001   14.1860    8.3035 C   0  0  0  0  0  0
   25.5942   15.3248    8.7787 C   0  0  0  0  0  0
   25.0468   16.2390    8.9609 H   0  0  0  0  0  0
   27.1406   17.3455   10.4452 C   0  0  0  0  0  0
   26.1965   17.0785   10.8984 H   0  0  0  0  0  0
   27.7753   18.5403   10.8343 C   0  0  0  0  0  0
   27.0416   19.5923   11.9846 Cl  0  0  0  0  0  0
   20.7176   17.1860    9.7987 H   0  0  0  0  0  0
  1  2  1  0  0  0
  2 44  1  0  0  0
  2  3  2  0  0  0
  3  4  1  0  0  0
  3  5  1  0  0  0
  5  6  1  0  0  0
  5  7  2  0  0  0
  7  8  1  0  0  0
  7 42  1  0  0  0
  8 40  1  0  0  0
  8  9  2  0  0  0
  9 10  1  0  0  0
  9 11  1  0  0  0
 11 12  1  0  0  0
 11 13  2  0  0  0
 13 39  1  0  0  0
 13 14  1  0  0  0
 14 15  1  0  0  0
 15 16  1  0  0  0
 15 20  1  0  0  0
 15 24  1  0  0  0
 16 17  1  0  0  0
 16 18  1  0  0  0
 16 19  1  0  0  0
 20 21  1  0  0  0
 20 22  1  0  0  0
 20 23  1  0  0  0
 24 25  1  0  0  0
 24 26  1  0  0  0
 24 27  1  0  0  0
 27 38  1  0  0  0
 27 28  1  0  0  0
 27 39  1  0  0  0
 28 29  2  0  0  0
 28 30  1  0  0  0
 30 31  1  0  0  0
 30 35  1  0  0  0
 31 32  1  0  0  0
 31 33  1  0  0  0
 31 34  1  0  0  0
 35 36  1  0  0  0
 35 38  2  0  0  0
 36 37  1  0  0  0
 36 46  1  0  0  0
 39 40  2  0  0  0
 40 41  1  0  0  0
 42 43  1  0  0  0
 42 44  2  0  0  0
 44 45  1  0  0  0
M  END
> <s_m_source_file>
ligprep_bace_hunt.smi

> <i_m_source_file_index>
7

> <i_lp_mmshare_version>
53161

> <i_f3d_flags>
0

> <s_epik_input>
Q2xjMVtjSF1jKENsKVtjSF1jKFtjSF0xKS1jKFtjSF0yKVtjSF1bY0hdYyhPQyhbQ0gzXSkoW0NIM10pW0NIMl0zKWMyW0NAQF0zNEMoPU8pTihbQ0gzXSlDKD1ONClbTkgyXQ==

> <s_epik_cmdline>
J2VwaWtfcHl0aG9uJywgJy1waHQnLCAnMC4wJywgJy1waCcsICc3LjQnLCAnLXRuJywgJzgnLCAnLW1hJywgJzUwMCcsICctaW1hZScsICc8aW5maWxlLm1hZT4nLCAnLW9tYWUnLCAnPG91dGZpbGUubWFlPic=

> <r_lp_tautomer_probability>
1

> <r_epik_Ionization_Penalty>
1.0455

> <r_epik_Ionization_Penalty_Charging>
0

> <r_epik_Ionization_Penalty_Neutral>
1.0455

> <r_epik_State_Penalty>
-0

> <r_epik_Charging_Adjusted_Penalty>
0

> <i_epik_Tot_Q>
0

> <i_epik_Tot_abs_Q>
0

> <s_epik_Chemistry_Notes>
This compound has an imine and may undergo hydrolysis.

> <s_lp_Force_Field>
S-OPLS

> <r_lp_Energy>
33.4314

> <b_lp_Chiralities_Consistent>
1

> <s_lp_Variant>
lig_17-1

> <s_i_glide_gridfile>
glide-grid_4JPC-BACE_HUNT

> <i_i_glide_lignum>
7

> <i_i_glide_rotatable_bonds>
1

> <r_i_docking_score>
-6.96191

> <r_i_glide_ligand_efficiency>
-0.257849

> <r_i_glide_ligand_efficiency_sa>
-0.773546

> <r_i_glide_ligand_efficiency_ln>
-1.62062

> <r_i_glide_gscore>
-6.96191

> <r_i_glide_lipo>
-2.86063

> <r_i_glide_hbond>
-0.235332

> <r_i_glide_metal>
-0

> <r_i_glide_rewards>
-0.992415

> <r_i_glide_evdw>
-40.3156

> <r_i_glide_ecoul>
-5.53741

> <r_i_glide_erotb>
0.12017

> <r_i_glide_esite>
-0.147311

> <r_i_glide_emodel>
-49.7478

> <r_i_glide_energy>
-45.853

> <r_i_glide_einternal>
1.50811e-09

> <i_i_glide_confnum>
8

> <i_i_glide_posenum>
8

> <r_i_glide_eff_state_penalty>
-0

> <r_i_glide_rmsd>
0.0997689

> <s_glide_core_constrain_type>
snapped_core_restrain
$$$$