lig_CHEMBL1084935
                    3D
 Schrodinger Suite 2021-1.
 70 73  0  0  1  0            999 V2000
   28.0034    8.9726   22.5036 H   0  0  0  0  0  0
   27.9690    9.6166   21.8068 O   0  0  0  0  0  0
   26.6936    9.5787   21.2223 C   0  0  0  0  0  0
   26.5342    8.5707   20.8709 H   0  0  0  0  0  0
   25.9335    9.7758   21.9854 H   0  0  0  0  0  0
   26.5979   10.5943   20.0678 C   0  0  0  0  0  0
   25.9253   11.3993   20.3915 H   0  0  0  0  0  0
   27.5548   11.0833   19.9154 H   0  0  0  0  0  0
   26.0851   10.0346   18.7819 N   0  3  1  0  0  0
   24.7891    9.3031   18.9019 C   0  0  0  0  0  0
   24.6612    8.8129   19.8651 H   0  0  0  0  0  0
   23.9525   10.0047   18.8439 H   0  0  0  0  0  0
   24.6479    8.2203   17.8188 C   0  0  0  0  0  0
   23.7448    7.6326   17.9822 H   0  0  0  0  0  0
   25.4927    7.5330   17.8359 H   0  0  0  0  0  0
   24.5797    8.6360   16.8131 H   0  0  0  0  0  0
   25.9848   11.0653   17.7068 C   0  0  0  0  0  0
   25.0872   10.9304   17.0887 H   0  0  0  0  0  0
   25.8302   12.0320   18.1767 H   0  0  0  0  0  0
   27.1995   11.1781   16.7599 C   0  0  2  0  0  0
   27.2701   12.2330   16.4911 H   0  0  0  0  0  0
   26.9116   10.4606   15.5648 O   0  0  0  0  0  0
   27.8339   10.7293   14.5105 C   0  0  2  0  0  0
   27.8450   11.8072   14.3304 H   0  0  0  0  0  0
   27.3953   10.0657   13.2203 C   0  0  0  0  0  0
   26.4093   10.6918   12.4469 C   0  0  0  0  0  0
   26.0036   11.6078   12.8415 H   0  0  0  0  0  0
   26.0258   10.1786   11.1860 C   0  0  0  0  0  0
   25.0184   10.9238   10.2956 C   0  0  0  0  0  0
   25.7984   11.7514    9.2746 C   0  0  0  0  0  0
   25.1684   12.2769    8.5649 H   0  0  0  0  0  0
   26.4761   11.1146    8.7202 H   0  0  0  0  0  0
   26.3727   12.5226    9.7759 H   0  0  0  0  0  0
   24.1295   11.8724   11.0987 C   0  0  0  0  0  0
   24.7565   12.6006   11.5752 H   0  0  0  0  0  0
   23.5756   11.3725   11.8884 H   0  0  0  0  0  0
   23.4114   12.4037   10.4743 H   0  0  0  0  0  0
   24.0809    9.9490    9.5899 C   0  0  0  0  0  0
   23.2425   10.4391    9.1220 H   0  0  0  0  0  0
   23.6212    9.3700   10.3656 H   0  0  0  0  0  0
   24.5604    9.2928    8.8638 H   0  0  0  0  0  0
   26.6413    8.9876   10.7368 C   0  0  0  0  0  0
   26.3884    8.5682    9.7761 H   0  0  0  0  0  0
   27.6170    8.3411   11.5180 C   0  0  0  0  0  0
   28.0785    7.4381   11.1448 H   0  0  0  0  0  0
   28.0053    8.8758   12.7606 C   0  0  0  0  0  0
   29.0140    8.2374   13.4922 N   0  0  0  0  0  0
   29.1719    7.2498   13.3329 H   0  0  0  0  0  0
   29.3562    8.7349   14.8194 C   0  0  1  0  0  0
   28.6331    8.3013   15.5118 H   0  0  0  0  0  0
   30.7341    8.2411   15.2105 C   0  0  0  0  0  0
   31.8585    8.6488   14.4643 C   0  0  0  0  0  0
   31.7359    9.2994   13.6100 H   0  0  0  0  0  0
   33.1429    8.2128   14.8225 C   0  0  0  0  0  0
   33.9887    8.5337   14.2406 H   0  0  0  0  0  0
   33.3137    7.3716   15.9376 C   0  0  0  0  0  0
   34.3040    7.0376   16.2144 H   0  0  0  0  0  0
   32.1942    6.9585   16.6801 C   0  0  0  0  0  0
   32.3214    6.2988   17.5275 H   0  0  0  0  0  0
   30.9001    7.3792   16.3125 C   0  0  0  0  0  0
   30.0438    7.0451   16.8768 H   0  0  0  0  0  0
   29.2509   10.2804   14.9009 C   0  0  2  0  0  0
   29.9290   10.6878   14.1484 H   0  0  0  0  0  0
   29.6575   10.9104   16.2491 C   0  0  0  0  0  0
   30.6006   10.5085   16.6140 H   0  0  0  0  0  0
   29.8280   11.9772   16.0967 H   0  0  0  0  0  0
   28.5702   10.7333   17.3120 C   0  0  0  0  0  0
   28.8514   11.3264   18.1819 H   0  0  0  0  0  0
   28.5417    9.6898   17.6243 H   0  0  0  0  0  0
   26.7697    9.3543   18.4879 H   0  0  0  0  0  0
  1  2  1  0  0  0
  2  3  1  0  0  0
  3  4  1  0  0  0
  3  5  1  0  0  0
  3  6  1  0  0  0
  6  7  1  0  0  0
  6  8  1  0  0  0
  6  9  1  0  0  0
  9 10  1  0  0  0
  9 17  1  0  0  0
  9 70  1  0  0  0
 10 11  1  0  0  0
 10 12  1  0  0  0
 10 13  1  0  0  0
 13 14  1  0  0  0
 13 15  1  0  0  0
 13 16  1  0  0  0
 17 18  1  0  0  0
 17 19  1  0  0  0
 17 20  1  0  0  0
 20 67  1  0  0  0
 20 21  1  0  0  0
 20 22  1  0  0  0
 22 23  1  0  0  0
 23 62  1  0  0  0
 23 24  1  0  0  0
 23 25  1  0  0  0
 25 46  1  0  0  0
 25 26  2  0  0  0
 26 27  1  0  0  0
 26 28  1  0  0  0
 28 29  1  0  0  0
 28 42  2  0  0  0
 29 30  1  0  0  0
 29 34  1  0  0  0
 29 38  1  0  0  0
 30 31  1  0  0  0
 30 32  1  0  0  0
 30 33  1  0  0  0
 34 35  1  0  0  0
 34 36  1  0  0  0
 34 37  1  0  0  0
 38 39  1  0  0  0
 38 40  1  0  0  0
 38 41  1  0  0  0
 42 43  1  0  0  0
 42 44  1  0  0  0
 44 45  1  0  0  0
 44 46  2  0  0  0
 46 47  1  0  0  0
 47 48  1  0  0  0
 47 49  1  0  0  0
 49 50  1  0  0  0
 49 51  1  0  0  0
 49 62  1  0  0  0
 51 60  1  0  0  0
 51 52  2  0  0  0
 52 53  1  0  0  0
 52 54  1  0  0  0
 54 55  1  0  0  0
 54 56  2  0  0  0
 56 57  1  0  0  0
 56 58  1  0  0  0
 58 59  1  0  0  0
 58 60  2  0  0  0
 60 61  1  0  0  0
 62 63  1  0  0  0
 62 64  1  0  0  0
 64 65  1  0  0  0
 64 66  1  0  0  0
 64 67  1  0  0  0
 67 68  1  0  0  0
 67 69  1  0  0  0
M  CHG  1   9   1
M  END
> <s_m_source_file>
ligprep_eg5.smi

> <i_m_source_file_index>
16

> <i_lp_mmshare_version>
53161

> <i_f3d_flags>
0

> <s_epik_input>
W09IXVtDSDJdW0NIMl1OKFtDSDJdW0NIM10pW0NIMl1bQ0BIXShPMSlbQ0gyXVtDSDJdW0NASF0yW0NASF0oYzNbY0hdW2NIXVtjSF1bY0hdW2NIXTMpW05IXWMoYzRbQ0BASF0xMilbY0hdW2NIXWMoW2NIXTQpQyhbQ0gzXSkoW0NIM10pW0NIM10=

> <s_epik_cmdline>
J2VwaWtfcHl0aG9uJywgJy1waHQnLCAnMC4wJywgJy1waCcsICc3LjQnLCAnLXRuJywgJzgnLCAnLW1hJywgJzUwMCcsICctaW1hZScsICc8aW5maWxlLm1hZT4nLCAnLW9tYWUnLCAnPG91dGZpbGUubWFlPic=

> <r_epik_Ionization_Penalty>
0.2099

> <r_epik_Ionization_Penalty_Charging>
0.2095

> <r_epik_Ionization_Penalty_Neutral>
0.0003

> <r_epik_State_Penalty>
0.1996

> <r_epik_Charging_Adjusted_Penalty>
0.409142

> <i_epik_Tot_Q>
1

> <i_epik_Tot_abs_Q>
1

> <s_lp_Force_Field>
S-OPLS

> <r_lp_Energy>
53.7729

> <b_lp_Chiralities_Consistent>
1

> <s_lp_Variant>
lig_CHEMBL1084935-1

> <s_i_glide_gridfile>
glide-grid_3L9H-EG5

> <i_i_glide_lignum>
16

> <i_i_glide_rotatable_bonds>
8

> <r_i_docking_score>
-8.24927

> <r_i_glide_ligand_efficiency>
-0.266105

> <r_i_glide_ligand_efficiency_sa>
-0.835938

> <r_i_glide_ligand_efficiency_ln>
-1.86046

> <r_i_glide_gscore>
-8.44887

> <r_i_glide_lipo>
-5.31038

> <r_i_glide_hbond>
-0.330903

> <r_i_glide_metal>
-0

> <r_i_glide_rewards>
-0.722589

> <r_i_glide_evdw>
-42.0826

> <r_i_glide_ecoul>
-5.02703

> <r_i_glide_erotb>
0.773194

> <r_i_glide_esite>
0

> <r_i_glide_emodel>
-57.4596

> <r_i_glide_energy>
-47.1097

> <r_i_glide_einternal>
6.1247

> <i_i_glide_confnum>
33

> <i_i_glide_posenum>
253

> <r_i_glide_eff_state_penalty>
0.1996

> <r_i_glide_rmsd>
0.0930176

> <s_glide_core_constrain_type>
snapped_core_restrain
$$$$