lig_22
                    3D
 Schrodinger Suite 2021-1.
 56 59  0  0  1  0            999 V2000
   27.2374   19.2776   11.5071 H   0  0  0  0  0  0
   27.7154   18.6347   10.7833 C   0  0  0  0  0  0
   28.9636   18.9841   10.2427 C   0  0  0  0  0  0
   29.4463   19.8989   10.5550 H   0  0  0  0  0  0
   29.5916   18.1389    9.3043 C   0  0  0  0  0  0
   30.8062   18.5023    8.7698 O   0  0  0  0  0  0
   30.7876   19.6391    7.9120 C   0  0  0  0  0  0
   30.1985   20.4485    8.3459 H   0  0  0  0  0  0
   30.1828   19.2553    6.5516 C   0  0  0  0  0  0
   30.2026   20.0994    5.8618 H   0  0  0  0  0  0
   29.1442   18.9404    6.6525 H   0  0  0  0  0  0
   30.7360   18.4345    6.0935 H   0  0  0  0  0  0
   32.2324   20.1277    7.7639 C   0  0  0  0  0  0
   32.2882   21.0024    7.1164 H   0  0  0  0  0  0
   32.6441   20.4100    8.7308 H   0  0  0  0  0  0
   32.8739   19.3546    7.3411 H   0  0  0  0  0  0
   28.9627   16.9369    8.9178 C   0  0  0  0  0  0
   29.4462   16.3038    8.1882 H   0  0  0  0  0  0
   27.6910   16.5840    9.4292 C   0  0  0  0  0  0
   26.9972   15.3598    8.9779 C   0  0  0  0  0  0
   27.7051   14.1628    8.7393 C   0  0  0  0  0  0
   28.7733   14.1269    8.8919 H   0  0  0  0  0  0
   27.0363   12.9986    8.3188 C   0  0  0  0  0  0
   27.5951   12.0874    8.1622 H   0  0  0  0  0  0
   25.6432   13.0029    8.1190 C   0  0  0  0  0  0
   25.0476   11.8197    7.7365 O   0  0  0  0  0  0
   23.6399   11.6870    7.9376 C   0  0  0  0  0  0
   23.2153   10.4511    7.1307 C   0  0  0  0  0  0
   22.1471   10.2579    7.2324 H   0  0  0  0  0  0
   23.4297   10.5791    6.0700 H   0  0  0  0  0  0
   23.7486    9.5613    7.4640 H   0  0  0  0  0  0
   23.3471   11.4370    9.4342 C   0  0  0  0  0  0
   22.2753   11.3728    9.6220 H   0  0  0  0  0  0
   23.7929   10.5010    9.7709 H   0  0  0  0  0  0
   23.7427   12.2252   10.0751 H   0  0  0  0  0  0
   22.9219   12.9282    7.3752 C   0  0  0  0  0  0
   23.1195   12.9577    6.3019 H   0  0  0  0  0  0
   21.8393   12.8291    7.4735 H   0  0  0  0  0  0
   23.4134   14.2460    8.0094 C   0  0  1  0  0  0
   23.0269   15.4453    7.1271 C   0  0  0  0  0  0
   23.4324   15.6229    5.9761 O   0  0  0  0  0  0
   22.1989   16.2265    7.8120 N   0  0  0  0  0  0
   21.6076   17.4931    7.3942 C   0  0  0  0  0  0
   21.7760   18.2488    8.1582 H   0  0  0  0  0  0
   22.0434   17.8580    6.4641 H   0  0  0  0  0  0
   20.5327   17.3843    7.2500 H   0  0  0  0  0  0
   21.9918   15.6402    9.0403 C   0  0  0  0  0  0
   21.1386   16.2526    9.9319 N   0  0  0  0  0  0
   21.1014   15.9563   10.9073 H   0  0  0  0  0  0
   22.6458   14.5470    9.2086 N   0  0  0  0  0  0
   24.9179   14.2077    8.3032 C   0  0  0  0  0  0
   25.6017   15.3623    8.7553 C   0  0  0  0  0  0
   25.0455   16.2747    8.9167 H   0  0  0  0  0  0
   27.0851   17.4472   10.3716 C   0  0  0  0  0  0
   26.1210   17.1964   10.7907 H   0  0  0  0  0  0
   20.7133   17.1654    9.8089 H   0  0  0  0  0  0
  1  2  1  0  0  0
  2 54  1  0  0  0
  2  3  2  0  0  0
  3  4  1  0  0  0
  3  5  1  0  0  0
  5  6  1  0  0  0
  5 17  2  0  0  0
  6  7  1  0  0  0
  7  8  1  0  0  0
  7  9  1  0  0  0
  7 13  1  0  0  0
  9 10  1  0  0  0
  9 11  1  0  0  0
  9 12  1  0  0  0
 13 14  1  0  0  0
 13 15  1  0  0  0
 13 16  1  0  0  0
 17 18  1  0  0  0
 17 19  1  0  0  0
 19 20  1  0  0  0
 19 54  2  0  0  0
 20 52  1  0  0  0
 20 21  2  0  0  0
 21 22  1  0  0  0
 21 23  1  0  0  0
 23 24  1  0  0  0
 23 25  2  0  0  0
 25 51  1  0  0  0
 25 26  1  0  0  0
 26 27  1  0  0  0
 27 28  1  0  0  0
 27 32  1  0  0  0
 27 36  1  0  0  0
 28 29  1  0  0  0
 28 30  1  0  0  0
 28 31  1  0  0  0
 32 33  1  0  0  0
 32 34  1  0  0  0
 32 35  1  0  0  0
 36 37  1  0  0  0
 36 38  1  0  0  0
 36 39  1  0  0  0
 39 50  1  0  0  0
 39 40  1  0  0  0
 39 51  1  0  0  0
 40 41  2  0  0  0
 40 42  1  0  0  0
 42 43  1  0  0  0
 42 47  1  0  0  0
 43 44  1  0  0  0
 43 45  1  0  0  0
 43 46  1  0  0  0
 47 48  1  0  0  0
 47 50  2  0  0  0
 48 49  1  0  0  0
 48 56  1  0  0  0
 51 52  2  0  0  0
 52 53  1  0  0  0
 54 55  1  0  0  0
M  END
> <s_m_source_file>
ligprep_bace_hunt.smi

> <i_m_source_file_index>
13

> <i_lp_mmshare_version>
53161

> <i_f3d_flags>
0

> <s_epik_input>
W0NIM11bQ0hdKFtDSDNdKU9jMVtjSF1bY0hdW2NIXWMoW2NIXTEpLWMoW2NIXTIpW2NIXVtjSF1jKE9DKFtDSDNdKShbQ0gzXSlbQ0gyXTMpYzJbQ0BAXTM0Qyg9TylOKFtDSDNdKUMoPU40KVtOSDJd

> <s_epik_cmdline>
J2VwaWtfcHl0aG9uJywgJy1waHQnLCAnMC4wJywgJy1waCcsICc3LjQnLCAnLXRuJywgJzgnLCAnLW1hJywgJzUwMCcsICctaW1hZScsICc8aW5maWxlLm1hZT4nLCAnLW9tYWUnLCAnPG91dGZpbGUubWFlPic=

> <r_lp_tautomer_probability>
1

> <r_epik_Ionization_Penalty>
1.0455

> <r_epik_Ionization_Penalty_Charging>
0

> <r_epik_Ionization_Penalty_Neutral>
1.0455

> <r_epik_State_Penalty>
-0

> <r_epik_Charging_Adjusted_Penalty>
0

> <i_epik_Tot_Q>
0

> <i_epik_Tot_abs_Q>
0

> <s_epik_Chemistry_Notes>
This compound has an imine and may undergo hydrolysis.

> <s_lp_Force_Field>
S-OPLS

> <r_lp_Energy>
39.1061

> <b_lp_Chiralities_Consistent>
1

> <s_lp_Variant>
lig_22-1

> <s_i_glide_gridfile>
glide-grid_4JPC-BACE_HUNT

> <i_i_glide_lignum>
13

> <i_i_glide_rotatable_bonds>
3

> <r_i_docking_score>
-4.82816

> <r_i_glide_ligand_efficiency>
-0.166488

> <r_i_glide_ligand_efficiency_sa>
-0.511505

> <r_i_glide_ligand_efficiency_ln>
-1.10553

> <r_i_glide_gscore>
-4.82816

> <r_i_glide_lipo>
-2.41309

> <r_i_glide_hbond>
-0.229732

> <r_i_glide_metal>
-0

> <r_i_glide_rewards>
0.485048

> <r_i_glide_evdw>
-39.4948

> <r_i_glide_ecoul>
-5.33731

> <r_i_glide_erotb>
0.252352

> <r_i_glide_esite>
-0.147405

> <r_i_glide_emodel>
-50.3625

> <r_i_glide_energy>
-44.8321

> <r_i_glide_einternal>
6.32978

> <i_i_glide_confnum>
18

> <i_i_glide_posenum>
31

> <r_i_glide_eff_state_penalty>
-0

> <r_i_glide_rmsd>
0.104611

> <s_glide_core_constrain_type>
snapped_core_restrain
$$$$