lig_CAT-4i
                    3D
 Schrodinger Suite 2021-1.
 44 47  0  0  1  0            999 V2000
   29.2688    9.1581   21.8855 H   0  0  0  0  0  0
   28.9337   10.0603   21.4010 C   0  0  0  0  0  0
   27.6791   10.0421   20.9123 N   0  0  0  0  0  0
   27.2179   11.1427   20.2803 C   0  0  0  0  0  0
   25.8180   11.1040   19.8253 C   0  0  0  0  0  0
   24.7716   10.9619   20.7590 C   0  0  0  0  0  0
   25.0318   10.8454   21.8015 H   0  0  0  0  0  0
   23.4095   10.9865   20.3686 C   0  0  0  0  0  0
   22.3039   10.8486   21.4326 C   0  0  2  0  0  0
   20.8617   10.7188   20.8783 C   0  0  0  0  0  0
   20.0503   11.8518   20.6133 C   0  0  0  0  0  0
   20.4306   12.8542   20.7433 H   0  0  0  0  0  0
   18.7146   11.6982   20.1947 C   0  0  0  0  0  0
   18.0984   12.5686   20.0258 H   0  0  0  0  0  0
   18.1753   10.4192   20.0019 C   0  0  0  0  0  0
   17.1482   10.3069   19.6990 H   0  0  0  0  0  0
   18.9791    9.2859   20.2027 C   0  0  0  0  0  0
   18.5754    8.2947   20.0484 H   0  0  0  0  0  0
   20.3112    9.4371   20.6287 C   0  0  0  0  0  0
   20.9018    8.5437   20.7831 H   0  0  0  0  0  0
   22.4215   11.9682   22.4983 C   0  0  0  0  0  0
   22.3882   13.1765   22.2533 O   0  0  0  0  0  0
   22.5873   11.4145   23.6962 N   0  0  0  0  0  0
   22.7687   12.0729   24.9870 C   0  0  0  0  0  0
   22.0990   11.6510   25.7378 H   0  0  0  0  0  0
   23.7947   11.9506   25.3377 H   0  0  0  0  0  0
   22.5576   13.1406   24.9200 H   0  0  0  0  0  0
   22.6887   10.0589   23.5102 C   0  0  0  0  0  0
   22.9077    9.2583   24.6026 N   0  0  0  0  0  0
   22.9900    8.2491   24.5077 H   0  0  0  0  0  0
   22.5822    9.6945   22.2847 N   0  0  0  0  0  0
   23.1089   11.1342   18.9949 C   0  0  0  0  0  0
   22.0887   11.1506   18.6454 H   0  0  0  0  0  0
   24.1448   11.2633   18.0506 C   0  0  0  0  0  0
   23.9089   11.3783   17.0004 H   0  0  0  0  0  0
   25.4873   11.2554   18.4667 C   0  0  0  0  0  0
   26.2683   11.3743   17.7294 H   0  0  0  0  0  0
   28.0108   12.2955   20.1012 C   0  0  0  0  0  0
   27.6070   13.1584   19.5874 H   0  0  0  0  0  0
   29.3213   12.3091   20.6136 C   0  0  0  0  0  0
   29.9536   13.1764   20.4954 H   0  0  0  0  0  0
   29.7942   11.1675   21.2874 C   0  0  0  0  0  0
   30.7957   11.1355   21.6866 H   0  0  0  0  0  0
   22.9970    9.5606   25.5649 H   0  0  0  0  0  0
  1  2  1  0  0  0
  2 42  1  0  0  0
  2  3  2  0  0  0
  3  4  1  0  0  0
  4  5  1  0  0  0
  4 38  2  0  0  0
  5 36  1  0  0  0
  5  6  2  0  0  0
  6  7  1  0  0  0
  6  8  1  0  0  0
  8 32  2  0  0  0
  8  9  1  0  0  0
  9 31  1  0  0  0
  9 21  1  0  0  0
  9 10  1  0  0  0
 10 19  1  0  0  0
 10 11  2  0  0  0
 11 12  1  0  0  0
 11 13  1  0  0  0
 13 14  1  0  0  0
 13 15  2  0  0  0
 15 16  1  0  0  0
 15 17  1  0  0  0
 17 18  1  0  0  0
 17 19  2  0  0  0
 19 20  1  0  0  0
 21 22  2  0  0  0
 21 23  1  0  0  0
 23 24  1  0  0  0
 23 28  1  0  0  0
 24 25  1  0  0  0
 24 26  1  0  0  0
 24 27  1  0  0  0
 28 29  1  0  0  0
 28 31  2  0  0  0
 29 30  1  0  0  0
 29 44  1  0  0  0
 32 33  1  0  0  0
 32 34  1  0  0  0
 34 35  1  0  0  0
 34 36  2  0  0  0
 36 37  1  0  0  0
 38 39  1  0  0  0
 38 40  1  0  0  0
 40 41  1  0  0  0
 40 42  2  0  0  0
 42 43  1  0  0  0
M  END
> <s_m_source_file>
ligprep_bace.smi

> <i_m_source_file_index>
29

> <i_lp_mmshare_version>
53161

> <i_f3d_flags>
0

> <s_epik_input>
W2NIXTFbY0hdW2NIXVtjSF1uYzEtYzJbY0hdYyhbY0hdW2NIXVtjSF0yKVtDQEBdMyhDKD1PKU4oW0NIM10pQyg9TjMpW05IMl0pYzRbY0hdW2NIXVtjSF1bY0hdW2NIXTQ=

> <s_epik_cmdline>
J2VwaWtfcHl0aG9uJywgJy1waHQnLCAnMC4wJywgJy1waCcsICc3LjQnLCAnLXRuJywgJzgnLCAnLW1hJywgJzUwMCcsICctaW1hZScsICc8aW5maWxlLm1hZT4nLCAnLW9tYWUnLCAnPG91dGZpbGUubWFlPic=

> <r_lp_tautomer_probability>
1

> <r_epik_Ionization_Penalty>
0.505

> <r_epik_Ionization_Penalty_Charging>
0

> <r_epik_Ionization_Penalty_Neutral>
0.505

> <r_epik_State_Penalty>
-0

> <r_epik_Charging_Adjusted_Penalty>
0

> <i_epik_Tot_Q>
0

> <i_epik_Tot_abs_Q>
0

> <s_epik_Chemistry_Notes>
This compound has an imine and may undergo hydrolysis.

> <s_lp_Force_Field>
S-OPLS

> <r_lp_Energy>
50.9696

> <b_lp_Chiralities_Consistent>
1

> <s_lp_Variant>
lig_CAT-4i-1

> <s_i_glide_gridfile>
glide-grid_4DJW-BACE

> <i_i_glide_lignum>
29

> <i_i_glide_rotatable_bonds>
3

> <r_i_docking_score>
-6.31023

> <r_i_glide_ligand_efficiency>
-0.242701

> <r_i_glide_ligand_efficiency_sa>
-0.719001

> <r_i_glide_ligand_efficiency_ln>
-1.48194

> <r_i_glide_gscore>
-6.31023

> <r_i_glide_lipo>
-2.68539

> <r_i_glide_hbond>
-0.163413

> <r_i_glide_metal>
-0

> <r_i_glide_rewards>
-1.29816

> <r_i_glide_evdw>
-42.6722

> <r_i_glide_ecoul>
-2.64838

> <r_i_glide_erotb>
0.485235

> <r_i_glide_esite>
-0.117642

> <r_i_glide_emodel>
-60.4518

> <r_i_glide_energy>
-45.3206

> <r_i_glide_einternal>
1.12084

> <i_i_glide_confnum>
1

> <i_i_glide_posenum>
17

> <r_i_glide_eff_state_penalty>
-0

> <r_i_glide_rmsd>
0.0953634

> <s_glide_core_constrain_type>
snapped_core_restrain
$$$$