lig_5f
                    3D
 Schrodinger Suite 2021-1.
 37 39  0  0  1  0            999 V2000
  -39.0958  -11.3122    4.7010 H   0  0  0  0  0  0
  -39.0346  -11.6557    5.5820 O   0  0  0  0  0  0
  -38.6747  -10.6062    6.4508 C   0  0  0  0  0  0
  -38.6809  -10.9569    7.9190 C   0  0  0  0  0  0
  -39.2738  -12.1565    8.3560 C   0  0  0  0  0  0
  -39.6912  -12.8554    7.6444 H   0  0  0  0  0  0
  -39.3199  -12.4585    9.7216 C   0  0  0  0  0  0
  -39.7582  -13.3964   10.0269 H   0  0  0  0  0  0
  -38.8169  -11.5480   10.6778 C   0  0  0  0  0  0
  -38.8857  -11.8524   12.1378 C   0  0  0  0  0  0
  -39.5950  -12.8565   12.5759 N   0  0  0  0  0  0
  -39.6277  -13.1462   13.9517 C   0  0  0  0  0  0
  -40.4232  -14.2100   14.4256 C   0  0  0  0  0  0
  -41.1348  -14.9589   13.5513 F   0  0  0  0  0  0
  -40.5060  -14.4855   15.8003 C   0  0  0  0  0  0
  -41.1527  -15.2725   16.1540 H   0  0  0  0  0  0
  -39.7865  -13.7066   16.7231 C   0  0  0  0  0  0
  -39.8778  -13.9256   17.7790 H   0  0  0  0  0  0
  -38.9658  -12.6519   16.2664 C   0  0  0  0  0  0
  -38.4228  -12.0581   16.9859 H   0  0  0  0  0  0
  -38.8972  -12.3712   14.8824 C   0  0  0  0  0  0
  -38.0486  -11.2574   14.3458 C   0  0  0  0  0  0
  -37.3133  -10.5700   15.0554 O   0  0  0  0  0  0
  -38.1415  -11.0626   13.0277 N   0  0  0  0  0  0
  -37.5617  -10.3344   12.6342 H   0  0  0  0  0  0
  -38.2283  -10.3393   10.2389 C   0  0  0  0  0  0
  -37.8138   -9.6138   10.9246 H   0  0  0  0  0  0
  -38.1725  -10.0427    8.8693 C   0  0  0  0  0  0
  -37.7354   -9.1078    8.5482 H   0  0  0  0  0  0
  -37.3103  -10.1417    5.9680 C   0  0  0  0  0  0
  -37.0153   -9.1827    6.3979 H   0  0  0  0  0  0
  -37.2793  -10.0197    4.8834 H   0  0  0  0  0  0
  -36.5429  -10.8802    6.2216 H   0  0  0  0  0  0
  -39.7514   -9.5543    6.2985 C   0  0  0  0  0  0
  -39.5494   -8.6468    6.8793 H   0  0  0  0  0  0
  -39.7593   -9.2731    5.2543 H   0  0  0  0  0  0
  -40.7431   -9.9297    6.5621 H   0  0  0  0  0  0
  1  2  1  0  0  0
  2  3  1  0  0  0
  3  4  1  0  0  0
  3 30  1  0  0  0
  3 34  1  0  0  0
  4 28  1  0  0  0
  4  5  2  0  0  0
  5  6  1  0  0  0
  5  7  1  0  0  0
  7  8  1  0  0  0
  7  9  2  0  0  0
  9 10  1  0  0  0
  9 26  1  0  0  0
 10 24  1  0  0  0
 10 11  2  0  0  0
 11 12  1  0  0  0
 12 21  2  0  0  0
 12 13  1  0  0  0
 13 14  1  0  0  0
 13 15  2  0  0  0
 15 16  1  0  0  0
 15 17  1  0  0  0
 17 18  1  0  0  0
 17 19  2  0  0  0
 19 20  1  0  0  0
 19 21  1  0  0  0
 21 22  1  0  0  0
 22 23  2  0  0  0
 22 24  1  0  0  0
 24 25  1  0  0  0
 26 27  1  0  0  0
 26 28  2  0  0  0
 28 29  1  0  0  0
 30 31  1  0  0  0
 30 32  1  0  0  0
 30 33  1  0  0  0
 34 35  1  0  0  0
 34 36  1  0  0  0
 34 37  1  0  0  0
M  END
> <s_m_source_file>
ligprep_tnks2.smi

> <i_m_source_file_index>
10

> <i_lp_mmshare_version>
53161

> <i_f3d_flags>
0

> <s_epik_input>
W09IXUMoW0NIM10pKFtDSDNdKWMxW2NIXVtjSF1jKFtjSF1bY0hdMSktYyhuMilbbkhdYyg9TyljKGMyMylbY0hdW2NIXVtjSF1jM0Y=

> <s_epik_cmdline>
J2VwaWtfcHl0aG9uJywgJy1waHQnLCAnMC4wJywgJy1waCcsICc3LjQnLCAnLXRuJywgJzgnLCAnLW1hJywgJzUwMCcsICctaW1hZScsICc8aW5maWxlLm1hZT4nLCAnLW9tYWUnLCAnPG91dGZpbGUubWFlPic=

> <r_lp_tautomer_probability>
1

> <r_epik_Ionization_Penalty>
0.0415

> <r_epik_Ionization_Penalty_Charging>
0.0415

> <r_epik_Ionization_Penalty_Neutral>
0

> <r_epik_State_Penalty>
-0

> <r_epik_Charging_Adjusted_Penalty>
0.0415248

> <i_epik_Tot_Q>
0

> <i_epik_Tot_abs_Q>
0

> <s_lp_Force_Field>
S-OPLS

> <r_lp_Energy>
25.3401

> <b_lp_Chiralities_Consistent>
1

> <s_lp_Variant>
lig_5f-1

> <s_i_glide_gridfile>
glide-grid_4UI5-TNKS2

> <i_i_glide_lignum>
10

> <i_i_glide_rotatable_bonds>
3

> <r_i_docking_score>
-12.1776

> <r_i_glide_ligand_efficiency>
-0.553528

> <r_i_glide_ligand_efficiency_sa>
-1.55101

> <r_i_glide_ligand_efficiency_ln>
-2.97665

> <r_i_glide_gscore>
-12.1776

> <r_i_glide_lipo>
-4.4595

> <r_i_glide_hbond>
-0.829902

> <r_i_glide_metal>
-0

> <r_i_glide_rewards>
-3.58193

> <r_i_glide_evdw>
-44.4267

> <r_i_glide_ecoul>
-10.1197

> <r_i_glide_erotb>
0.433004

> <r_i_glide_esite>
0

> <r_i_glide_emodel>
-85.1632

> <r_i_glide_energy>
-54.5463

> <r_i_glide_einternal>
0.313041

> <i_i_glide_confnum>
12

> <i_i_glide_posenum>
7

> <r_i_glide_eff_state_penalty>
-0

> <r_i_glide_rmsd>
0.111436

> <s_glide_core_constrain_type>
snapped_core_restrain
$$$$