lig_CHEMBL3264996
                    3D
 Schrodinger Suite 2021-1.
 64 68  0  0  1  0            999 V2000
    6.2871   -0.8047   17.2643 H   0  0  0  0  0  0
    5.6573   -0.5054   16.4454 C   0  0  0  0  0  0
    5.9136    0.4096   15.4664 C   0  0  0  0  0  0
    6.7627    1.0402   15.2478 H   0  0  0  0  0  0
    4.7546    0.5099   14.7276 N   0  0  0  0  0  0
    3.8329   -0.4072   15.2769 C   0  0  0  0  0  0
    4.3885   -1.0532   16.3013 N   0  0  0  0  0  0
    2.5374   -0.4437   14.6863 C   0  0  0  0  0  0
    1.6031   -1.3407   15.2364 N   0  0  0  0  0  0
    1.9990   -1.9071   15.9766 H   0  0  0  0  0  0
    0.2286   -1.5488   15.0248 C   0  0  0  0  0  0
   -0.3704   -2.5808   15.7765 C   0  0  0  0  0  0
    0.2217   -3.1717   16.4620 H   0  0  0  0  0  0
   -1.7439   -2.8530   15.6607 C   0  0  0  0  0  0
   -2.1825   -3.6458   16.2520 H   0  0  0  0  0  0
   -2.5471   -2.0981   14.7868 C   0  0  0  0  0  0
   -3.8877   -2.3718   14.6966 O   0  0  0  0  0  0
   -4.2302   -3.1309   13.5471 C   0  0  0  0  0  0
   -5.3028   -3.3248   13.5411 H   0  0  0  0  0  0
   -3.9795   -2.6060   12.6244 H   0  0  0  0  0  0
   -3.7195   -4.0948   13.5481 H   0  0  0  0  0  0
   -1.9770   -1.0505   14.0297 C   0  0  0  0  0  0
   -2.8262   -0.3232   13.2180 O   0  0  0  0  0  0
   -2.2511    0.6626   12.3737 C   0  0  0  0  0  0
   -3.0221    1.1000   11.7399 H   0  0  0  0  0  0
   -1.8113    1.4670   12.9655 H   0  0  0  0  0  0
   -1.4913    0.2338   11.7168 H   0  0  0  0  0  0
   -0.5880   -0.7907   14.1518 C   0  0  0  0  0  0
   -0.1614    0.0166   13.5868 H   0  0  0  0  0  0
    2.2186    0.3440   13.6994 N   0  0  0  0  0  0
    3.1439    1.2429   13.2156 C   0  0  0  0  0  0
    2.6839    2.1380   12.1373 C   0  0  0  0  0  0
    3.5910    2.6108   11.1601 C   0  0  0  0  0  0
    4.6282    2.3137   11.1919 H   0  0  0  0  0  0
    3.1627    3.4389   10.1093 C   0  0  0  0  0  0
    3.8705    3.7774    9.3672 H   0  0  0  0  0  0
    1.8090    3.8083   10.0199 C   0  0  0  0  0  0
    1.4812    4.4285    9.1986 H   0  0  0  0  0  0
    0.8858    3.3720   10.9926 C   0  0  0  0  0  0
   -0.5666    3.7178   10.8384 C   0  0  0  0  0  0
   -1.0811    3.6647    9.7207 O   0  0  0  0  0  0
   -1.2007    4.1213   11.9568 N   0  0  0  0  0  0
   -0.6106    4.2889   12.7683 H   0  0  0  0  0  0
   -2.5573    4.5303   12.0839 C   0  0  0  0  0  0
   -2.8856    5.4337   13.1157 C   0  0  0  0  0  0
   -2.1164    5.7849   13.7893 H   0  0  0  0  0  0
   -4.2135    5.8767   13.2908 C   0  0  0  0  0  0
   -4.4239    6.5625   14.0984 H   0  0  0  0  0  0
   -5.2391    5.4229   12.4324 C   0  0  0  0  0  0
   -6.6622    5.8514   12.5937 C   0  0  0  0  0  0
   -7.5776    5.3713   11.9223 O   0  0  0  0  0  0
   -6.8502    6.7941   13.5353 O   0  0  0  0  0  0
   -8.1719    7.2498   13.7922 C   0  0  0  0  0  0
   -8.1727    8.0617   14.5222 H   0  0  0  0  0  0
   -8.7861    6.4350   14.1786 H   0  0  0  0  0  0
   -8.6361    7.6176   12.8763 H   0  0  0  0  0  0
   -4.9101    4.5002   11.4111 C   0  0  0  0  0  0
   -5.6711    4.1226   10.7436 H   0  0  0  0  0  0
   -3.5871    4.0492   11.2449 C   0  0  0  0  0  0
   -3.3820    3.3298   10.4655 H   0  0  0  0  0  0
    1.3299    2.5445   12.0476 C   0  0  0  0  0  0
    0.6213    2.1902   12.7815 H   0  0  0  0  0  0
    4.4264    1.3247   13.7001 C   0  0  0  0  0  0
    5.1745    2.0326   13.3649 H   0  0  0  0  0  0
  1  2  1  0  0  0
  2  7  1  0  0  0
  2  3  2  0  0  0
  3  4  1  0  0  0
  3  5  1  0  0  0
  5 63  1  0  0  0
  5  6  1  0  0  0
  6  7  2  0  0  0
  6  8  1  0  0  0
  8  9  1  0  0  0
  8 30  2  0  0  0
  9 10  1  0  0  0
  9 11  1  0  0  0
 11 28  1  0  0  0
 11 12  2  0  0  0
 12 13  1  0  0  0
 12 14  1  0  0  0
 14 15  1  0  0  0
 14 16  2  0  0  0
 16 17  1  0  0  0
 16 22  1  0  0  0
 17 18  1  0  0  0
 18 19  1  0  0  0
 18 20  1  0  0  0
 18 21  1  0  0  0
 22 23  1  0  0  0
 22 28  2  0  0  0
 23 24  1  0  0  0
 24 25  1  0  0  0
 24 26  1  0  0  0
 24 27  1  0  0  0
 28 29  1  0  0  0
 30 31  1  0  0  0
 31 32  1  0  0  0
 31 63  2  0  0  0
 32 61  1  0  0  0
 32 33  2  0  0  0
 33 34  1  0  0  0
 33 35  1  0  0  0
 35 36  1  0  0  0
 35 37  2  0  0  0
 37 38  1  0  0  0
 37 39  1  0  0  0
 39 40  1  0  0  0
 39 61  2  0  0  0
 40 41  2  0  0  0
 40 42  1  0  0  0
 42 43  1  0  0  0
 42 44  1  0  0  0
 44 59  1  0  0  0
 44 45  2  0  0  0
 45 46  1  0  0  0
 45 47  1  0  0  0
 47 48  1  0  0  0
 47 49  2  0  0  0
 49 50  1  0  0  0
 49 57  1  0  0  0
 50 51  2  0  0  0
 50 52  1  0  0  0
 52 53  1  0  0  0
 53 54  1  0  0  0
 53 55  1  0  0  0
 53 56  1  0  0  0
 57 58  1  0  0  0
 57 59  2  0  0  0
 59 60  1  0  0  0
 61 62  1  0  0  0
 63 64  1  0  0  0
M  END
> <s_m_source_file>
ligprep_syk.smi

> <i_m_source_file_index>
4

> <i_lp_mmshare_version>
53161

> <i_f3d_flags>
0

> <s_epik_input>
W0NIM11PYyhbY0hdMSljKE9bQ0gzXSlbY0hdW2NIXWMxW05IXWMoYyhuMjMpbltjSF1bY0hdMiluYyhbY0hdMyktYzRbY0hdW2NIXVtjSF1jKFtjSF00KUMoPU8pW05IXWM1W2NIXVtjSF1jKFtjSF1bY0hdNSlDKD1PKU9bQ0gzXQ==

> <s_epik_cmdline>
J2VwaWtfcHl0aG9uJywgJy1waHQnLCAnMC4wJywgJy1waCcsICc3LjQnLCAnLXRuJywgJzgnLCAnLW1hJywgJzUwMCcsICctaW1hZScsICc8aW5maWxlLm1hZT4nLCAnLW9tYWUnLCAnPG91dGZpbGUubWFlPic=

> <r_lp_tautomer_probability>
1

> <r_epik_Ionization_Penalty>
0.0009

> <r_epik_Ionization_Penalty_Charging>
0.0009

> <r_epik_Ionization_Penalty_Neutral>
0

> <r_epik_State_Penalty>
-0

> <r_epik_Charging_Adjusted_Penalty>
0.000851558

> <i_epik_Tot_Q>
0

> <i_epik_Tot_abs_Q>
0

> <s_epik_Chemistry_Notes>
This compound has an ester and may undergo hydrolysis at high or low pH.

> <s_lp_Force_Field>
S-OPLS

> <r_lp_Energy>
55.1764

> <b_lp_Chiralities_Consistent>
1

> <s_lp_Variant>
lig_CHEMBL3264996-1

> <s_i_glide_gridfile>
glide-grid_4PV0-SYK

> <i_i_glide_lignum>
4

> <i_i_glide_rotatable_bonds>
10

> <r_i_docking_score>
-8.90351

> <r_i_glide_ligand_efficiency>
-0.228295

> <r_i_glide_ligand_efficiency_sa>
-0.774197

> <r_i_glide_ligand_efficiency_ln>
-1.90917

> <r_i_glide_gscore>
-8.90351

> <r_i_glide_lipo>
-2.94469

> <r_i_glide_hbond>
-0.865154

> <r_i_glide_metal>
-0

> <r_i_glide_rewards>
-1.51017

> <r_i_glide_evdw>
-55.1064

> <r_i_glide_ecoul>
-10.2141

> <r_i_glide_erotb>
0.750504

> <r_i_glide_esite>
-0.046565

> <r_i_glide_emodel>
-99.097

> <r_i_glide_energy>
-65.3205

> <r_i_glide_einternal>
0.0349821

> <i_i_glide_confnum>
1

> <i_i_glide_posenum>
3

> <r_i_glide_eff_state_penalty>
-0

> <r_i_glide_rmsd>
0.0631712

> <s_glide_core_constrain_type>
snapped_core_restrain
$$$$