lig_CHEMBL1082248
                    3D
 Schrodinger Suite 2021-1.
 48 51  0  0  1  0            999 V2000
   34.2407    7.0287   16.2181 H   0  0  0  0  0  0
   33.2572    7.3701   15.9281 C   0  0  0  0  0  0
   33.1044    8.1955   14.8017 C   0  0  0  0  0  0
   33.9662    8.4992   14.2280 H   0  0  0  0  0  0
   31.8240    8.6439   14.4322 C   0  0  0  0  0  0
   31.7160    9.2866   13.5712 H   0  0  0  0  0  0
   30.6879    8.2617   15.1787 C   0  0  0  0  0  0
   29.3160    8.7843   14.7904 C   0  0  2  0  0  0
   28.5905    8.3479   15.4770 H   0  0  0  0  0  0
   28.9458    8.3243   13.4580 N   0  0  0  0  0  0
   29.1278    7.3519   13.2380 H   0  0  0  0  0  0
   27.9226    8.9830   12.7574 C   0  0  0  0  0  0
   27.4735    8.4503   11.5338 C   0  0  0  0  0  0
   27.9600    7.2831   11.1186 F   0  0  0  0  0  0
   26.5121    9.0920   10.7459 C   0  0  0  0  0  0
   26.1925    8.6668    9.8071 H   0  0  0  0  0  0
   25.9814   10.2983   11.2063 C   0  0  0  0  0  0
   24.7672   11.2966   10.1845 Br  0  0  0  0  0  0
   26.3778   10.8331   12.4461 C   0  0  0  0  0  0
   25.9617   11.7697   12.7832 H   0  0  0  0  0  0
   27.3520   10.1861   13.2247 C   0  0  0  0  0  0
   27.8177   10.8179   14.5224 C   0  0  1  0  0  0
   27.8466   11.8980   14.3643 H   0  0  0  0  0  0
   26.8999   10.5292   15.5766 O   0  0  0  0  0  0
   27.1857   11.2210   16.7839 C   0  0  1  0  0  0
   27.2569   12.2823   16.5397 H   0  0  0  0  0  0
   25.9779   11.0585   17.7367 C   0  0  0  0  0  0
   25.7682   12.0077   18.2301 H   0  0  0  0  0  0
   25.0861   10.8384   17.1514 H   0  0  0  0  0  0
   26.1330   10.0063   18.7643 N   0  3  0  0  0  0
   25.2256    9.5813   18.9015 H   0  0  0  0  0  0
   26.5834   10.4733   20.0918 C   0  0  0  0  0  0
   26.6541    9.6298   20.7757 H   0  0  0  0  0  0
   25.8713   11.1803   20.5139 H   0  0  0  0  0  0
   27.5600   10.9511   20.0470 H   0  0  0  0  0  0
   28.5522   10.7419   17.3218 C   0  0  0  0  0  0
   28.8318   11.2982   18.2162 H   0  0  0  0  0  0
   28.5085    9.6885   17.5986 H   0  0  0  0  0  0
   29.6437   10.9243   16.2632 C   0  0  0  0  0  0
   29.8364   11.9930   16.1382 H   0  0  0  0  0  0
   30.5769   10.4930   16.6237 H   0  0  0  0  0  0
   29.2278   10.3292   14.9023 C   0  0  1  0  0  0
   29.9177   10.7335   14.1611 H   0  0  0  0  0  0
   30.8418    7.4060   16.2881 C   0  0  0  0  0  0
   29.9814    7.0887   16.8573 H   0  0  0  0  0  0
   32.1280    6.9701   16.6653 C   0  0  0  0  0  0
   32.2456    6.3184   17.5198 H   0  0  0  0  0  0
   26.7514    9.2910   18.4118 H   0  0  0  0  0  0
  1  2  1  0  0  0
  2 46  1  0  0  0
  2  3  2  0  0  0
  3  4  1  0  0  0
  3  5  1  0  0  0
  5  6  1  0  0  0
  5  7  2  0  0  0
  7  8  1  0  0  0
  7 44  1  0  0  0
  8 42  1  0  0  0
  8  9  1  0  0  0
  8 10  1  0  0  0
 10 11  1  0  0  0
 10 12  1  0  0  0
 12 21  1  0  0  0
 12 13  2  0  0  0
 13 14  1  0  0  0
 13 15  1  0  0  0
 15 16  1  0  0  0
 15 17  2  0  0  0
 17 18  1  0  0  0
 17 19  1  0  0  0
 19 20  1  0  0  0
 19 21  2  0  0  0
 21 22  1  0  0  0
 22 42  1  0  0  0
 22 23  1  0  0  0
 22 24  1  0  0  0
 24 25  1  0  0  0
 25 26  1  0  0  0
 25 27  1  0  0  0
 25 36  1  0  0  0
 27 28  1  0  0  0
 27 29  1  0  0  0
 27 30  1  0  0  0
 30 31  1  0  0  0
 30 32  1  0  0  0
 30 48  1  0  0  0
 32 33  1  0  0  0
 32 34  1  0  0  0
 32 35  1  0  0  0
 36 37  1  0  0  0
 36 38  1  0  0  0
 36 39  1  0  0  0
 39 40  1  0  0  0
 39 41  1  0  0  0
 39 42  1  0  0  0
 42 43  1  0  0  0
 44 45  1  0  0  0
 44 46  2  0  0  0
 46 47  1  0  0  0
M  CHG  1  30   1
M  END
> <s_m_source_file>
ligprep_eg5.smi

> <i_m_source_file_index>
6

> <i_lp_mmshare_version>
53161

> <i_f3d_flags>
0

> <s_epik_input>
W2NIXTFbY0hdW2NIXVtjSF1bY0hdYzFbQ0BIXShbTkhdMilbQ0BASF0oW0NASF0zYyhjMjQpW2NIXWMoQnIpW2NIXWM0RilbQ0gyXVtDSDJdW0NAQEhdKE8zKVtDSDJdW05IXVtDSDNd

> <s_epik_cmdline>
J2VwaWtfcHl0aG9uJywgJy1waHQnLCAnMC4wJywgJy1waCcsICc3LjQnLCAnLXRuJywgJzgnLCAnLW1hJywgJzUwMCcsICctaW1hZScsICc8aW5maWxlLm1hZT4nLCAnLW9tYWUnLCAnPG91dGZpbGUubWFlPic=

> <r_lp_tautomer_probability>
1

> <r_epik_Ionization_Penalty>
0.0025

> <r_epik_Ionization_Penalty_Charging>
0.0025

> <r_epik_Ionization_Penalty_Neutral>
0

> <r_epik_State_Penalty>
-0

> <r_epik_Charging_Adjusted_Penalty>
0.00245839

> <i_epik_Tot_Q>
1

> <i_epik_Tot_abs_Q>
1

> <s_lp_Force_Field>
S-OPLS

> <r_lp_Energy>
42.3512

> <b_lp_Chiralities_Consistent>
1

> <s_lp_Variant>
lig_CHEMBL1082248-1

> <s_i_glide_gridfile>
glide-grid_3L9H-EG5

> <i_i_glide_lignum>
6

> <i_i_glide_rotatable_bonds>
3

> <r_i_docking_score>
-7.66299

> <r_i_glide_ligand_efficiency>
-0.30652

> <r_i_glide_ligand_efficiency_sa>
-0.896269

> <r_i_glide_ligand_efficiency_ln>
-1.81636

> <r_i_glide_gscore>
-7.66299

> <r_i_glide_lipo>
-4.61525

> <r_i_glide_hbond>
-0.0893222

> <r_i_glide_metal>
-0

> <r_i_glide_rewards>
-0.856614

> <r_i_glide_evdw>
-39.7644

> <r_i_glide_ecoul>
-3.13911

> <r_i_glide_erotb>
0.357281

> <r_i_glide_esite>
0

> <r_i_glide_emodel>
-64.2095

> <r_i_glide_energy>
-42.9035

> <r_i_glide_einternal>
-7.21262e-08

> <i_i_glide_confnum>
2

> <i_i_glide_posenum>
2

> <r_i_glide_eff_state_penalty>
-0

> <r_i_glide_rmsd>
0.0906519

> <s_glide_core_constrain_type>
snapped_core_restrain
$$$$