lig_23483
                    3D
 Schrodinger Suite 2021-1.
 57 60  0  0  1  0            999 V2000
   52.2191   -0.2428    3.3832 H   0  0  0  0  0  0
   52.1486    0.8249    3.5860 C   0  0  0  0  0  0
   51.4166    1.2743    4.7032 C   0  0  0  0  0  0
   51.3124    2.6512    4.9786 C   0  0  0  0  0  0
   51.9484    3.5784    4.1307 C   0  0  0  0  0  0
   52.6890    3.1334    3.0187 C   0  0  0  0  0  0
   52.7879    1.7565    2.7421 C   0  0  0  0  0  0
   53.3569    1.4049    1.8940 H   0  0  0  0  0  0
   53.1980    3.8473    2.3900 H   0  0  0  0  0  0
   51.8910    5.3319    4.5191 S   0  0  0  0  0  0
   53.1905    5.9273    4.1598 O   0  0  0  0  0  0
   51.3603    5.4972    5.8836 O   0  0  0  0  0  0
   50.7089    5.9566    3.3972 N   0  0  3  0  0  0
   51.0385    6.2059    1.9832 C   0  0  0  0  0  0
   50.5987    7.6224    1.5901 C   0  0  0  0  0  0
   49.1057    7.8643    1.8701 C   0  0  0  0  0  0
   48.7903    7.5325    3.3498 C   0  0  0  0  0  0
   49.2767    6.1218    3.7476 C   0  0  0  0  0  0
   48.6888    5.3557    3.2324 H   0  0  0  0  0  0
   49.1231    5.9745    4.8175 H   0  0  0  0  0  0
   49.2800    8.2623    4.0009 H   0  0  0  0  0  0
   47.7190    7.6265    3.5401 H   0  0  0  0  0  0
   48.5431    7.1810    1.2311 H   0  0  0  0  0  0
   48.7929    9.2551    1.5346 N   0  0  0  0  0  0
   49.4581    9.9459    1.8649 H   0  0  0  0  0  0
   47.5031    9.7154    1.2201 C   0  0  0  0  0  0
   46.4843    8.8900    0.6908 C   0  0  0  0  0  0
   45.2434    9.4545    0.3372 C   0  0  0  0  0  0
   44.9795   10.8221    0.5887 C   0  0  0  0  0  0
   45.9668   11.6562    1.1520 C   0  0  0  0  0  0
   47.2339   11.0898    1.4185 C   0  0  0  0  0  0
   48.0211   11.7149    1.8076 H   0  0  0  0  0  0
   45.6989   13.0666    1.4860 C   0  0  0  0  0  0
   46.1631   13.8342    2.5188 C   0  0  0  0  0  0
   45.7017   15.1753    2.5469 C   0  0  0  0  0  0
   44.8223   15.4421    1.5279 C   0  0  0  0  0  0
   44.5891   14.0304    0.5180 S   0  0  0  0  0  0
   44.0950   16.6874    1.1930 C   0  0  0  0  0  0
   43.5567   16.8191    0.0728 O   0  0  0  0  0  0
   44.0241   17.6062    2.0443 O   0  5  0  0  0  0
   46.0234   16.0516    3.5154 O   0  0  0  0  0  0
   47.2165   16.7791    3.3381 C   0  0  0  0  0  0
   47.0676   17.5705    2.6006 H   0  0  0  0  0  0
   48.0233   16.1370    2.9852 H   0  0  0  0  0  0
   47.6106   17.3999    4.6731 C   0  0  0  0  0  0
   48.7156   17.9869    4.7154 O   0  0  0  0  0  0
   46.8231   17.2858    5.6437 O   0  5  0  0  0  0
   47.2893   13.2211    3.9156 Br  0  0  0  0  0  0
   43.9970   11.2111    0.3564 H   0  0  0  0  0  0
   44.4757    8.8237   -0.0719 H   0  0  0  0  0  0
   46.6583    7.8383    0.5281 H   0  0  0  0  0  0
   50.8062    7.7884    0.5334 H   0  0  0  0  0  0
   51.2034    8.3434    2.1449 H   0  0  0  0  0  0
   50.5370    5.4637    1.3598 H   0  0  0  0  0  0
   52.1104    6.0992    1.8194 H   0  0  0  0  0  0
   50.7542    2.9814    5.8423 H   0  0  0  0  0  0
   50.9327    0.5556    5.3463 H   0  0  0  0  0  0
  1  2  1  0  0  0
  2  7  1  0  0  0
  2  3  2  0  0  0
  3  4  1  0  0  0
  3 57  1  0  0  0
  4  5  2  0  0  0
  4 56  1  0  0  0
  5  6  1  0  0  0
  5 10  1  0  0  0
  6  7  2  0  0  0
  6  9  1  0  0  0
  7  8  1  0  0  0
 10 11  2  0  0  0
 10 12  2  0  0  0
 10 13  1  0  0  0
 13 18  1  0  0  0
 13 14  1  0  0  0
 14 15  1  0  0  0
 14 54  1  0  0  0
 14 55  1  0  0  0
 15 16  1  0  0  0
 15 52  1  0  0  0
 15 53  1  0  0  0
 16 17  1  0  0  0
 16 23  1  0  0  0
 16 24  1  0  0  0
 17 18  1  0  0  0
 17 21  1  0  0  0
 17 22  1  0  0  0
 18 19  1  0  0  0
 18 20  1  0  0  0
 24 25  1  0  0  0
 24 26  1  0  0  0
 26 31  1  0  0  0
 26 27  2  0  0  0
 27 28  1  0  0  0
 27 51  1  0  0  0
 28 29  2  0  0  0
 28 50  1  0  0  0
 29 30  1  0  0  0
 29 49  1  0  0  0
 30 31  2  0  0  0
 30 33  1  0  0  0
 31 32  1  0  0  0
 33 37  1  0  0  0
 33 34  2  0  0  0
 34 35  1  0  0  0
 34 48  1  0  0  0
 35 36  2  0  0  0
 35 41  1  0  0  0
 36 37  1  0  0  0
 36 38  1  0  0  0
 38 39  2  0  0  0
 38 40  1  0  0  0
 41 42  1  0  0  0
 42 43  1  0  0  0
 42 44  1  0  0  0
 42 45  1  0  0  0
 45 46  2  0  0  0
 45 47  1  0  0  0
M  CHG  2  40  -1  47  -1
M  END
> <s_m_source_file>
ligprep_ptp1b.smi

> <i_m_source_file_index>
20

> <i_lp_mmshare_version>
53161

> <i_f3d_flags>
0

> <s_epik_input>
W2NIXTFbY0hdW2NIXVtjSF1bY0hdYzFTKD1PKSg9TylOMltDSDJdW0NIMl1bQ0hdKFtDSDJdW0NIMl0yKVtOSF1jM1tjSF1bY0hdW2NIXWMoW2NIXTMpLWM0YyhCciljKGMoczQpQyg9TylbT0hdKU9bQ0gyXUMoPU8pW09IXQ==

> <s_epik_cmdline>
J2VwaWtfcHl0aG9uJywgJy1waHQnLCAnMC4wJywgJy1waCcsICc3LjQnLCAnLXRuJywgJzgnLCAnLW1hJywgJzUwMCcsICctaW1hZScsICc8aW5maWxlLm1hZT4nLCAnLW9tYWUnLCAnPG91dGZpbGUubWFlPic=

> <r_lp_tautomer_probability>
1

> <r_epik_Ionization_Penalty>
0.0004

> <r_epik_Ionization_Penalty_Charging>
0.0001

> <r_epik_Ionization_Penalty_Neutral>
0.0004

> <r_epik_State_Penalty>
-0

> <r_epik_Charging_Adjusted_Penalty>
9.21585e-05

> <i_epik_Tot_Q>
-2

> <i_epik_Tot_abs_Q>
2

> <s_lp_Force_Field>
S-OPLS

> <r_lp_Energy>
68.1523

> <b_lp_Chiralities_Consistent>
1

> <s_lp_Variant>
lig_23483-1

> <s_i_glide_gridfile>
glide-grid_2QBS-PTP1B

> <i_i_glide_lignum>
20

> <i_i_glide_rotatable_bonds>
9

> <r_i_docking_score>
-8.76619

> <r_i_glide_ligand_efficiency>
-0.243505

> <r_i_glide_ligand_efficiency_sa>
-0.804037

> <r_i_glide_ligand_efficiency_ln>
-1.91255

> <r_i_glide_gscore>
-8.76619

> <r_i_glide_lipo>
-1.48299

> <r_i_glide_hbond>
-1.26568

> <r_i_glide_metal>
-0

> <r_i_glide_rewards>
0.0165615

> <r_i_glide_evdw>
-46.5582

> <r_i_glide_ecoul>
-30.7202

> <r_i_glide_erotb>
0.424491

> <r_i_glide_esite>
-0.130656

> <r_i_glide_emodel>
-138.687

> <r_i_glide_energy>
-77.2784

> <r_i_glide_einternal>
22.7201

> <i_i_glide_confnum>
12

> <i_i_glide_posenum>
6

> <r_i_glide_eff_state_penalty>
-0

> <r_i_glide_rmsd>
0.071854

> <s_glide_core_constrain_type>
snapped_core_restrain
$$$$