lig_CAT-17f
                    3D
 Schrodinger Suite 2021-1.
 42 45  0  0  1  0            999 V2000
   27.2172    9.0554   21.4012 H   0  0  0  0  0  0
   27.7943    9.9197   21.1129 C   0  0  0  0  0  0
   29.0502    9.9759   21.6137 N   0  0  0  0  0  0
   29.8047   11.0617   21.3343 C   0  0  0  0  0  0
   30.7841   11.0881   21.7946 H   0  0  0  0  0  0
   29.3370   12.1269   20.5396 C   0  0  0  0  0  0
   30.0447   13.3903   20.4083 C   0  0  0  0  0  0
   30.5924   14.4069   20.3028 N   0  0  0  0  0  0
   28.0281   12.0434   20.0222 C   0  0  0  0  0  0
   27.6145   12.8658   19.4526 H   0  0  0  0  0  0
   27.2158   10.9334   20.3171 C   0  0  0  0  0  0
   25.8082   10.9323   19.8761 C   0  0  0  0  0  0
   24.7541   10.7968   20.8064 C   0  0  0  0  0  0
   24.9944   10.6643   21.8486 H   0  0  0  0  0  0
   23.3924   10.8758   20.4193 C   0  0  0  0  0  0
   22.2770   10.7950   21.4871 C   0  0  2  0  0  0
   20.8506   10.6953   20.9106 C   0  0  0  0  0  0
   20.6040   11.5037   20.2245 H   0  0  0  0  0  0
   20.1678    9.3642   20.6747 C   0  0  0  0  0  0
   19.5583    9.2611   19.7824 H   0  0  0  0  0  0
   20.6840    8.4600   20.9901 H   0  0  0  0  0  0
   19.6555   10.2810   21.7552 C   0  0  0  0  0  0
   19.8311    9.9879   22.7886 H   0  0  0  0  0  0
   18.7137   10.7983   21.5739 H   0  0  0  0  0  0
   22.3587   11.9994   22.4423 C   0  0  0  0  0  0
   22.1887   13.1692   22.0966 O   0  0  0  0  0  0
   22.6260   11.5667   23.6706 N   0  0  0  0  0  0
   22.7886   12.3539   24.8918 C   0  0  0  0  0  0
   23.7543   12.1398   25.3538 H   0  0  0  0  0  0
   22.7446   13.4267   24.6887 H   0  0  0  0  0  0
   22.0015   12.1168   25.6087 H   0  0  0  0  0  0
   22.7082   10.1956   23.6132 C   0  0  0  0  0  0
   22.9474    9.5060   24.7810 N   0  0  0  0  0  0
   23.0197    8.4952   24.7977 H   0  0  0  0  0  0
   22.5445    9.7111   22.4337 N   0  0  0  0  0  0
   23.1020   11.0563   19.0448 C   0  0  0  0  0  0
   22.0881   11.1109   18.6821 H   0  0  0  0  0  0
   24.1406   11.1797   18.1039 C   0  0  0  0  0  0
   23.9077   11.3144   17.0572 H   0  0  0  0  0  0
   25.4823   11.1279   18.5194 C   0  0  0  0  0  0
   26.2673   11.2362   17.7860 H   0  0  0  0  0  0
   22.9940    9.9049   25.7108 H   0  0  0  0  0  0
  1  2  1  0  0  0
  2 11  1  0  0  0
  2  3  2  0  0  0
  3  4  1  0  0  0
  4  5  1  0  0  0
  4  6  2  0  0  0
  6  7  1  0  0  0
  6  9  1  0  0  0
  7  8  3  0  0  0
  9 10  1  0  0  0
  9 11  2  0  0  0
 11 12  1  0  0  0
 12 40  1  0  0  0
 12 13  2  0  0  0
 13 14  1  0  0  0
 13 15  1  0  0  0
 15 36  2  0  0  0
 15 16  1  0  0  0
 16 35  1  0  0  0
 16 25  1  0  0  0
 16 17  1  0  0  0
 17 22  1  0  0  0
 17 18  1  0  0  0
 17 19  1  0  0  0
 19 20  1  0  0  0
 19 21  1  0  0  0
 19 22  1  0  0  0
 22 23  1  0  0  0
 22 24  1  0  0  0
 25 26  2  0  0  0
 25 27  1  0  0  0
 27 28  1  0  0  0
 27 32  1  0  0  0
 28 29  1  0  0  0
 28 30  1  0  0  0
 28 31  1  0  0  0
 32 33  1  0  0  0
 32 35  2  0  0  0
 33 34  1  0  0  0
 33 42  1  0  0  0
 36 37  1  0  0  0
 36 38  1  0  0  0
 38 39  1  0  0  0
 38 40  2  0  0  0
 40 41  1  0  0  0
M  END
> <s_m_source_file>
ligprep_bace.smi

> <i_m_source_file_index>
20

> <i_lp_mmshare_version>
53161

> <i_f3d_flags>
0

> <s_epik_input>
TiNDYzFbY0hdbltjSF1jKFtjSF0xKS1jMltjSF1jKFtjSF1bY0hdW2NIXTIpW0NAXTMoW0NIXTRbQ0gyXVtDSDJdNClDKD1PKU4oW0NIM10pQyg9TjMpW05IMl0=

> <s_epik_cmdline>
J2VwaWtfcHl0aG9uJywgJy1waHQnLCAnMC4wJywgJy1waCcsICc3LjQnLCAnLXRuJywgJzgnLCAnLW1hJywgJzUwMCcsICctaW1hZScsICc8aW5maWxlLm1hZT4nLCAnLW9tYWUnLCAnPG91dGZpbGUubWFlPic=

> <r_lp_tautomer_probability>
1

> <r_epik_Ionization_Penalty>
1.4055

> <r_epik_Ionization_Penalty_Charging>
0

> <r_epik_Ionization_Penalty_Neutral>
1.4055

> <r_epik_State_Penalty>
-0

> <r_epik_Charging_Adjusted_Penalty>
0

> <i_epik_Tot_Q>
0

> <i_epik_Tot_abs_Q>
0

> <s_epik_Chemistry_Notes>
This compound has an imine and may undergo hydrolysis.

> <s_lp_Force_Field>
S-OPLS

> <r_lp_Energy>
31.3411

> <b_lp_Chiralities_Consistent>
1

> <s_lp_Variant>
lig_CAT-17f-1

> <s_i_glide_gridfile>
glide-grid_4DJW-BACE

> <i_i_glide_lignum>
20

> <i_i_glide_rotatable_bonds>
3

> <r_i_docking_score>
-5.92982

> <r_i_glide_ligand_efficiency>
-0.237193

> <r_i_glide_ligand_efficiency_sa>
-0.693556

> <r_i_glide_ligand_efficiency_ln>
-1.40555

> <r_i_glide_gscore>
-5.92982

> <r_i_glide_lipo>
-2.01828

> <r_i_glide_hbond>
-0.352957

> <r_i_glide_metal>
-0

> <r_i_glide_rewards>
-1.41146

> <r_i_glide_evdw>
-35.0727

> <r_i_glide_ecoul>
-5.30138

> <r_i_glide_erotb>
0.514187

> <r_i_glide_esite>
-0.112472

> <r_i_glide_emodel>
-46.3831

> <r_i_glide_energy>
-40.3741

> <r_i_glide_einternal>
3.23991

> <i_i_glide_confnum>
3

> <i_i_glide_posenum>
1

> <r_i_glide_eff_state_penalty>
-0

> <r_i_glide_rmsd>
0.109607

> <s_glide_core_constrain_type>
snapped_core_restrain
$$$$