lig_ejm_43
                    3D
 Schrodinger Suite 2021-1.
 38 39  0  0  1  0            999 V2000
   -4.7758   -2.7864  -16.4082 H   0  0  0  0  0  0
   -5.3657   -3.6568  -16.1610 C   0  0  0  0  0  0
   -4.7770   -4.9320  -16.1583 C   0  0  0  0  0  0
   -5.5388   -6.0668  -15.8207 C   0  0  0  0  0  0
   -6.9087   -5.9356  -15.4763 C   0  0  0  0  0  0
   -7.4997   -4.6467  -15.5030 C   0  0  0  0  0  0
   -6.7268   -3.5203  -15.8414 C   0  0  0  0  0  0
   -7.1830   -2.5426  -15.8586 H   0  0  0  0  0  0
   -9.1769   -4.4070  -15.1619 Cl  0  0  0  0  0  0
   -7.7202   -7.1315  -15.0648 C   0  0  0  0  0  0
   -8.1427   -7.2196  -13.9119 O   0  0  0  0  0  0
   -7.9075   -8.0393  -16.0420 N   0  0  0  0  0  0
   -7.4294   -7.8412  -16.9085 H   0  0  0  0  0  0
   -8.7331   -9.1970  -16.0628 C   0  0  0  0  0  0
   -9.5813   -9.5943  -15.0077 C   0  0  0  0  0  0
  -10.3875  -10.7275  -15.1925 C   0  0  0  0  0  0
  -10.3747  -11.4776  -16.3137 N   0  0  0  0  0  0
   -9.5525  -11.1298  -17.3300 C   0  0  0  0  0  0
   -8.7317   -9.9757  -17.2380 C   0  0  0  0  0  0
   -8.1078   -9.6660  -18.0619 H   0  0  0  0  0  0
   -9.5769  -11.9365  -18.5018 N   0  0  0  0  0  0
  -10.4090  -12.5045  -18.5971 H   0  0  0  0  0  0
   -8.6442  -12.0954  -19.4628 C   0  0  0  0  0  0
   -7.5769  -11.4851  -19.5059 O   0  0  0  0  0  0
   -8.9538  -13.1242  -20.5645 C   0  0  0  0  0  0
   -9.8786  -13.6562  -20.3326 H   0  0  0  0  0  0
   -7.8024  -14.1443  -20.7182 C   0  0  0  0  0  0
   -7.5769  -14.7000  -19.8218 H   0  0  0  0  0  0
   -6.8777  -13.6545  -21.0281 H   0  0  0  0  0  0
   -8.0460  -14.8838  -21.4813 H   0  0  0  0  0  0
   -9.0660  -12.4773  -21.9486 C   0  0  0  0  0  0
   -9.9769  -11.9211  -22.0282 H   0  0  0  0  0  0
   -8.2320  -11.8090  -22.1675 H   0  0  0  0  0  0
   -9.1067  -13.2257  -22.7407 H   0  0  0  0  0  0
  -11.0613  -11.0504  -14.4126 H   0  0  0  0  0  0
   -9.6587   -9.0508  -14.0795 H   0  0  0  0  0  0
   -4.7498   -7.6003  -15.8230 Cl  0  0  0  0  0  0
   -3.7302   -5.0379  -16.4049 H   0  0  0  0  0  0
  1  2  1  0  0  0
  2  7  1  0  0  0
  2  3  2  0  0  0
  3  4  1  0  0  0
  3 38  1  0  0  0
  4  5  2  0  0  0
  4 37  1  0  0  0
  5  6  1  0  0  0
  5 10  1  0  0  0
  6  7  2  0  0  0
  6  9  1  0  0  0
  7  8  1  0  0  0
 10 11  2  0  0  0
 10 12  1  0  0  0
 12 13  1  0  0  0
 12 14  1  0  0  0
 14 19  1  0  0  0
 14 15  2  0  0  0
 15 16  1  0  0  0
 15 36  1  0  0  0
 16 17  2  0  0  0
 16 35  1  0  0  0
 17 18  1  0  0  0
 18 19  2  0  0  0
 18 21  1  0  0  0
 19 20  1  0  0  0
 21 22  1  0  0  0
 21 23  1  0  0  0
 23 24  2  0  0  0
 23 25  1  0  0  0
 25 26  1  0  0  0
 25 27  1  0  0  0
 25 31  1  0  0  0
 27 28  1  0  0  0
 27 29  1  0  0  0
 27 30  1  0  0  0
 31 32  1  0  0  0
 31 33  1  0  0  0
 31 34  1  0  0  0
M  END
> <s_m_source_file>
ligprep_tyk2.smi

> <i_m_source_file_index>
3

> <i_lp_mmshare_version>
53161

> <i_f3d_flags>
0

> <s_epik_input>
Q2xjMVtjSF1bY0hdW2NIXWMoQ2wpYzFDKD1PKVtOSF1jMltjSF1bY0hdbmMoW2NIXTIpW05IXUMoPU8pW0NIXShbQ0gzXSlbQ0gzXQ==

> <s_epik_cmdline>
J2VwaWtfcHl0aG9uJywgJy1waHQnLCAnMC4wJywgJy1waCcsICc3LjQnLCAnLXRuJywgJzgnLCAnLW1hJywgJzUwMCcsICctaW1hZScsICc8aW5maWxlLm1hZT4nLCAnLW9tYWUnLCAnPG91dGZpbGUubWFlPic=

> <r_lp_tautomer_probability>
1

> <r_epik_Ionization_Penalty>
0.0034

> <r_epik_Ionization_Penalty_Charging>
0

> <r_epik_Ionization_Penalty_Neutral>
0.0034

> <r_epik_State_Penalty>
-0

> <r_epik_Charging_Adjusted_Penalty>
0

> <i_epik_Tot_Q>
0

> <i_epik_Tot_abs_Q>
0

> <s_lp_Force_Field>
S-OPLS

> <r_lp_Energy>
32.6902

> <b_lp_Chiralities_Consistent>
1

> <s_lp_Variant>
lig_ejm_43-1

> <s_i_glide_gridfile>
glide-grid_4GIH-TYK2

> <i_i_glide_lignum>
3

> <i_i_glide_rotatable_bonds>
6

> <r_i_docking_score>
-9.1081

> <r_i_glide_ligand_efficiency>
-0.396004

> <r_i_glide_ligand_efficiency_sa>
-1.12618

> <r_i_glide_ligand_efficiency_ln>
-2.20242

> <r_i_glide_gscore>
-9.1081

> <r_i_glide_lipo>
-3.31668

> <r_i_glide_hbond>
-0.558006

> <r_i_glide_metal>
-0

> <r_i_glide_rewards>
-2.41712

> <r_i_glide_evdw>
-45.1011

> <r_i_glide_ecoul>
-8.0486

> <r_i_glide_erotb>
0.646046

> <r_i_glide_esite>
0

> <r_i_glide_emodel>
-58.5529

> <r_i_glide_energy>
-53.1497

> <r_i_glide_einternal>
3.69998e-05

> <i_i_glide_confnum>
1

> <i_i_glide_posenum>
2

> <r_i_glide_eff_state_penalty>
-0

> <r_i_glide_rmsd>
0.084902

> <s_glide_core_constrain_type>
snapped_core_restrain
$$$$