lig_6a
                    3D
 Schrodinger Suite 2021-1.
 52 54  0  0  1  0            999 V2000
   22.1221  -13.2346   24.9994 C   0  0  0  0  0  0
   20.9704  -12.6315   25.5360 C   0  0  0  0  0  0
   19.7180  -13.2596   25.3956 C   0  0  0  0  0  0
   19.6050  -14.4896   24.7112 C   0  0  0  0  0  0
   20.7708  -15.1068   24.2084 C   0  0  0  0  0  0
   22.0238  -14.4765   24.3457 C   0  0  0  0  0  0
   18.2418  -15.1530   24.5304 C   0  0  0  0  0  0
   17.6717  -15.1765   23.0844 C   0  0  2  0  0  0
   17.4233  -13.7535   22.5491 C   0  0  0  0  0  0
   16.4742  -13.1289   23.0279 O   0  0  0  0  0  0
   18.2281  -13.2185   21.5964 N   0  0  0  0  0  0
   19.4324  -13.8583   21.0622 C   0  0  0  0  0  0
   20.1498  -12.8023   20.2288 C   0  0  0  0  0  0
   19.0926  -11.7711   19.8933 C   0  0  0  0  0  0
   18.0233  -11.8870   20.9922 C   0  0  1  0  0  0
   16.6194  -11.7196   20.3670 C   0  0  0  0  0  0
   16.1622  -12.5994   19.6387 O   0  0  0  0  0  0
   15.9546  -10.5911   20.6524 N   0  0  0  0  0  0
   14.6039  -10.2581   20.2019 C   0  0  0  0  0  0
   13.5185  -10.5461   21.2320 C   0  0  0  0  0  0
   13.2451   -9.5588   22.2012 C   0  0  0  0  0  0
   12.2283   -9.7500   23.1513 C   0  0  0  0  0  0
   11.4807  -10.9406   23.1527 C   0  0  0  0  0  0
   11.7672  -11.9474   22.2134 C   0  0  0  0  0  0
   12.7672  -11.7503   21.2388 C   0  0  0  0  0  0
   13.0327  -12.9956   20.0681 Cl  0  0  0  0  0  0
   11.9227   -8.5340   24.3326 Cl  0  0  0  0  0  0
   16.3910  -15.9139   23.0449 N   0  3  0  0  0  0
   18.3577  -15.7286   22.4412 H   0  0  0  0  0  0
   18.1921  -11.1323   21.7642 H   0  0  0  0  0  0
   16.0676  -15.9477   22.0797 H   0  0  0  0  0  0
   16.5025  -16.8531   23.3963 H   0  0  0  0  0  0
   23.0840  -12.7562   25.1029 H   0  0  0  0  0  0
   21.0437  -11.6904   26.0590 H   0  0  0  0  0  0
   18.8481  -12.7896   25.8289 H   0  0  0  0  0  0
   20.7083  -16.0586   23.7012 H   0  0  0  0  0  0
   22.9109  -14.9466   23.9501 H   0  0  0  0  0  0
   18.3312  -16.1747   24.9036 H   0  0  0  0  0  0
   17.5267  -14.6641   25.1957 H   0  0  0  0  0  0
   20.0903  -14.2482   21.8357 H   0  0  0  0  0  0
   19.1303  -14.6891   20.4226 H   0  0  0  0  0  0
   20.9233  -12.3341   20.8377 H   0  0  0  0  0  0
   20.6364  -13.2203   19.3466 H   0  0  0  0  0  0
   19.5128  -10.7675   19.8516 H   0  0  0  0  0  0
   18.6866  -12.0039   18.9082 H   0  0  0  0  0  0
   16.4278   -9.8983   21.2215 H   0  0  0  0  0  0
   14.5947   -9.1818   20.0247 H   0  0  0  0  0  0
   14.3700  -10.7139   19.2370 H   0  0  0  0  0  0
   13.8256   -8.6492   22.2196 H   0  0  0  0  0  0
   10.7102  -11.0931   23.8949 H   0  0  0  0  0  0
   11.1966  -12.8656   22.2342 H   0  0  0  0  0  0
   15.6964  -15.4079   23.5843 H   0  0  0  0  0  0
  1  6  1  0  0  0
  1  2  2  0  0  0
  1 33  1  0  0  0
  2  3  1  0  0  0
  2 34  1  0  0  0
  3  4  2  0  0  0
  3 35  1  0  0  0
  4  5  1  0  0  0
  4  7  1  0  0  0
  5  6  2  0  0  0
  5 36  1  0  0  0
  6 37  1  0  0  0
  7  8  1  0  0  0
  7 38  1  0  0  0
  7 39  1  0  0  0
  8 29  1  0  0  0
  8  9  1  0  0  0
  8 28  1  0  0  0
  9 10  2  0  0  0
  9 11  1  0  0  0
 11 15  1  0  0  0
 11 12  1  0  0  0
 12 13  1  0  0  0
 12 40  1  0  0  0
 12 41  1  0  0  0
 13 14  1  0  0  0
 13 42  1  0  0  0
 13 43  1  0  0  0
 14 15  1  0  0  0
 14 44  1  0  0  0
 14 45  1  0  0  0
 15 30  1  0  0  0
 15 16  1  0  0  0
 16 17  2  0  0  0
 16 18  1  0  0  0
 18 19  1  0  0  0
 18 46  1  0  0  0
 19 20  1  0  0  0
 19 47  1  0  0  0
 19 48  1  0  0  0
 20 25  1  0  0  0
 20 21  2  0  0  0
 21 22  1  0  0  0
 21 49  1  0  0  0
 22 23  2  0  0  0
 22 27  1  0  0  0
 23 24  1  0  0  0
 23 50  1  0  0  0
 24 25  2  0  0  0
 24 51  1  0  0  0
 25 26  1  0  0  0
 28 31  1  0  0  0
 28 32  1  0  0  0
 28 52  1  0  0  0
M  CHG  1  28   1
M  END
> <s_m_source_file>
ligprep_thrombin.smi

> <i_m_source_file_index>
8

> <i_lp_mmshare_version>
53161

> <i_f3d_flags>
0

> <s_epik_input>
W2NIXTFbY0hdW2NIXVtjSF1bY0hdYzFbQ0gyXVtDQEBIXShbTkgyXSlDKD1PKU4yW0NIMl1bQ0gyXVtDSDJdW0NASF0yQyg9TylbTkhdW0NIMl1jM1tjSF1jKENsKVtjSF1bY0hdYzNDbA==

> <s_epik_cmdline>
J2VwaWtfcHl0aG9uJywgJy1waHQnLCAnMC4wJywgJy1waCcsICc3LjQnLCAnLXRuJywgJzgnLCAnLW1hJywgJzUwMCcsICctaW1hZScsICc8aW5maWxlLm1hZT4nLCAnLW9tYWUnLCAnPG91dGZpbGUubWFlPic=

> <r_epik_Ionization_Penalty>
0.3822

> <r_epik_Ionization_Penalty_Charging>
0.3822

> <r_epik_Ionization_Penalty_Neutral>
0

> <r_epik_State_Penalty>
0.3803

> <r_epik_Charging_Adjusted_Penalty>
0.762511

> <i_epik_Tot_Q>
1

> <i_epik_Tot_abs_Q>
1

> <s_lp_Force_Field>
S-OPLS

> <r_lp_Energy>
39.429

> <b_lp_Chiralities_Consistent>
1

> <s_lp_Variant>
lig_6a-1

> <s_i_glide_gridfile>
glide-grid_2ZFF-Thrombin

> <i_i_glide_lignum>
8

> <i_i_glide_rotatable_bonds>
8

> <r_i_docking_score>
-11.0496

> <r_i_glide_ligand_efficiency>
-0.394628

> <r_i_glide_ligand_efficiency_sa>
-1.19832

> <r_i_glide_ligand_efficiency_ln>
-2.55057

> <r_i_glide_gscore>
-11.4299

> <r_i_glide_lipo>
-5.08669

> <r_i_glide_hbond>
-0.864

> <r_i_glide_metal>
-0

> <r_i_glide_rewards>
-1.26623

> <r_i_glide_evdw>
-51.252

> <r_i_glide_ecoul>
-16.7724

> <r_i_glide_erotb>
0.892284

> <r_i_glide_esite>
-0.0267941

> <r_i_glide_emodel>
-120.807

> <r_i_glide_energy>
-68.0244

> <r_i_glide_einternal>
1.09489e-07

> <i_i_glide_confnum>
8

> <i_i_glide_posenum>
2

> <r_i_glide_eff_state_penalty>
0.3803

> <r_i_glide_rmsd>
0.0831813

> <s_glide_core_constrain_type>
snapped_core_restrain
$$$$