lig_jmc_27
                    3D
 Schrodinger Suite 2021-1.
 36 38  0  0  1  0            999 V2000
   -4.7850   -2.7769  -16.4290 H   0  0  0  0  0  0
   -5.3697   -3.6480  -16.1728 C   0  0  0  0  0  0
   -4.7769   -4.9212  -16.1644 C   0  0  0  0  0  0
   -5.5349   -6.0557  -15.8170 C   0  0  0  0  0  0
   -6.9040   -5.9250  -15.4663 C   0  0  0  0  0  0
   -7.4991   -4.6383  -15.5006 C   0  0  0  0  0  0
   -6.7300   -3.5136  -15.8503 C   0  0  0  0  0  0
   -7.1893   -2.5374  -15.8751 H   0  0  0  0  0  0
   -9.1768   -4.3997  -15.1586 Cl  0  0  0  0  0  0
   -7.7148   -7.1180  -15.0457 C   0  0  0  0  0  0
   -8.1389   -7.1991  -13.8934 O   0  0  0  0  0  0
   -7.9049   -8.0287  -16.0180 N   0  0  0  0  0  0
   -7.4294   -7.8335  -16.8865 H   0  0  0  0  0  0
   -8.7326   -9.1839  -16.0340 C   0  0  0  0  0  0
   -9.5767   -9.5845  -14.9768 C   0  0  0  0  0  0
  -10.3787  -10.7211  -15.1617 C   0  0  0  0  0  0
  -10.3684  -11.4682  -16.2855 N   0  0  0  0  0  0
   -9.5511  -11.1143  -17.3033 C   0  0  0  0  0  0
   -8.7345   -9.9579  -17.2108 C   0  0  0  0  0  0
   -8.1156   -9.6410  -18.0354 H   0  0  0  0  0  0
   -9.5769  -11.9102  -18.4820 N   0  0  0  0  0  0
  -10.4125  -12.4719  -18.5849 H   0  0  0  0  0  0
   -8.6418  -12.0583  -19.4429 C   0  0  0  0  0  0
   -7.5768  -11.4445  -19.4773 O   0  0  0  0  0  0
   -9.0300  -13.0424  -20.5007 C   0  0  2  0  0  0
   -7.9790  -13.8599  -21.2474 C   0  0  1  0  0  0
   -8.6725  -12.7173  -21.9374 C   0  0  0  0  0  0
   -8.0920  -11.8168  -22.1314 H   0  0  0  0  0  0
   -9.4254  -12.9488  -22.6885 H   0  0  0  0  0  0
   -8.2615  -14.8677  -21.5420 H   0  0  0  0  0  0
   -6.2468  -13.7466  -21.0219 Cl  0  0  0  0  0  0
   -9.9956  -13.5261  -20.3580 H   0  0  0  0  0  0
  -11.0483  -11.0477  -14.3796 H   0  0  0  0  0  0
   -9.6507   -9.0421  -14.0475 H   0  0  0  0  0  0
   -4.7400   -7.5863  -15.8220 Cl  0  0  0  0  0  0
   -3.7318   -5.0262  -16.4169 H   0  0  0  0  0  0
  1  2  1  0  0  0
  2  7  1  0  0  0
  2  3  2  0  0  0
  3  4  1  0  0  0
  3 36  1  0  0  0
  4  5  2  0  0  0
  4 35  1  0  0  0
  5  6  1  0  0  0
  5 10  1  0  0  0
  6  7  2  0  0  0
  6  9  1  0  0  0
  7  8  1  0  0  0
 10 11  2  0  0  0
 10 12  1  0  0  0
 12 13  1  0  0  0
 12 14  1  0  0  0
 14 19  1  0  0  0
 14 15  2  0  0  0
 15 16  1  0  0  0
 15 34  1  0  0  0
 16 17  2  0  0  0
 16 33  1  0  0  0
 17 18  1  0  0  0
 18 19  2  0  0  0
 18 21  1  0  0  0
 19 20  1  0  0  0
 21 22  1  0  0  0
 21 23  1  0  0  0
 23 24  2  0  0  0
 23 25  1  0  0  0
 25 27  1  0  0  0
 25 26  1  0  0  0
 25 32  1  0  0  0
 26 27  1  0  0  0
 26 30  1  0  0  0
 26 31  1  0  0  0
 27 28  1  0  0  0
 27 29  1  0  0  0
M  END
> <s_m_source_file>
ligprep_tyk2.smi

> <i_m_source_file_index>
14

> <i_lp_mmshare_version>
53161

> <i_f3d_flags>
0

> <s_epik_input>
Q2xjMVtjSF1bY0hdW2NIXWMoQ2wpYzFDKD1PKVtOSF1jMltjSF1bY0hdbmMoW2NIXTIpW05IXUMoPU8pW0NAQEhdM1tDQEhdKENsKVtDSDJdMw==

> <s_epik_cmdline>
J2VwaWtfcHl0aG9uJywgJy1waHQnLCAnMC4wJywgJy1waCcsICc3LjQnLCAnLXRuJywgJzgnLCAnLW1hJywgJzUwMCcsICctaW1hZScsICc8aW5maWxlLm1hZT4nLCAnLW9tYWUnLCAnPG91dGZpbGUubWFlPic=

> <r_lp_tautomer_probability>
1

> <r_epik_Ionization_Penalty>
0.0036

> <r_epik_Ionization_Penalty_Charging>
0

> <r_epik_Ionization_Penalty_Neutral>
0.0036

> <r_epik_State_Penalty>
-0

> <r_epik_Charging_Adjusted_Penalty>
0

> <i_epik_Tot_Q>
0

> <i_epik_Tot_abs_Q>
0

> <s_lp_Force_Field>
S-OPLS

> <r_lp_Energy>
45.7895

> <b_lp_Chiralities_Consistent>
1

> <s_lp_Variant>
lig_jmc_27-1

> <s_i_glide_gridfile>
glide-grid_4GIH-TYK2

> <i_i_glide_lignum>
14

> <i_i_glide_rotatable_bonds>
6

> <r_i_docking_score>
-9.61003

> <r_i_glide_ligand_efficiency>
-0.400418

> <r_i_glide_ligand_efficiency_sa>
-1.15501

> <r_i_glide_ligand_efficiency_ln>
-2.30012

> <r_i_glide_gscore>
-9.61003

> <r_i_glide_lipo>
-3.42477

> <r_i_glide_hbond>
-0.568211

> <r_i_glide_metal>
-0

> <r_i_glide_rewards>
-2.19874

> <r_i_glide_evdw>
-51.4918

> <r_i_glide_ecoul>
-9.30474

> <r_i_glide_erotb>
0.551994

> <r_i_glide_esite>
0

> <r_i_glide_emodel>
-93.0639

> <r_i_glide_energy>
-60.7966

> <r_i_glide_einternal>
8.68225e-07

> <i_i_glide_confnum>
1

> <i_i_glide_posenum>
1

> <r_i_glide_eff_state_penalty>
-0

> <r_i_glide_rmsd>
0.0781248

> <s_glide_core_constrain_type>
snapped_core_restrain
$$$$