lig_CAT-13h
                    3D
 Schrodinger Suite 2021-1.
 45 48  0  0  1  0            999 V2000
   29.7287    9.3002   21.8018 H   0  0  0  0  0  0
   29.2197   10.1620   21.4016 C   0  0  0  0  0  0
   27.8982   10.0375   20.9341 C   0  0  0  0  0  0
   27.3945    9.0876   21.0134 H   0  0  0  0  0  0
   27.2364   11.1421   20.3614 C   0  0  0  0  0  0
   25.8560   11.0629   19.8714 C   0  0  0  0  0  0
   24.7727   10.8781   20.7571 C   0  0  0  0  0  0
   25.0019   10.7343   21.8016 H   0  0  0  0  0  0
   23.4160   10.9448   20.3330 C   0  0  0  0  0  0
   22.2846   10.8347   21.4144 C   0  0  2  0  0  0
   20.7664   10.7833   20.9867 C   0  0  0  0  0  0
   19.8143   10.5912   22.1790 C   0  0  0  0  0  0
   18.7789   10.5437   21.8414 H   0  0  0  0  0  0
   20.0141    9.6603   22.7067 H   0  0  0  0  0  0
   19.8803   11.4196   22.8838 H   0  0  0  0  0  0
   20.1932   11.6633   19.8911 C   0  0  0  0  0  0
   19.1940   12.0665   20.0443 H   0  0  0  0  0  0
   20.8638   12.3671   19.4102 H   0  0  0  0  0  0
   20.2929   10.1609   19.6896 C   0  0  0  0  0  0
   21.0459    9.7013   19.0597 H   0  0  0  0  0  0
   19.3619    9.5981   19.7209 H   0  0  0  0  0  0
   22.5015   11.9622   22.4482 C   0  0  0  0  0  0
   22.4189   13.1645   22.1887 O   0  0  0  0  0  0
   22.7844   11.4232   23.6332 N   0  0  0  0  0  0
   23.1432   12.1172   24.8672 C   0  0  0  0  0  0
   22.8468   13.1660   24.8340 H   0  0  0  0  0  0
   22.6657   11.6683   25.7392 H   0  0  0  0  0  0
   24.2240   12.0792   25.0018 H   0  0  0  0  0  0
   22.7802   10.0546   23.4847 C   0  0  0  0  0  0
   22.9907    9.2600   24.5982 N   0  0  0  0  0  0
   22.9940    8.2468   24.5228 H   0  0  0  0  0  0
   22.5533    9.6749   22.2740 N   0  0  0  0  0  0
   23.2061   11.1617   18.9436 C   0  0  0  0  0  0
   22.2482   11.2419   18.4765 H   0  0  0  0  0  0
   24.2713   11.2981   18.0448 C   0  0  0  0  0  0
   24.0729   11.4616   16.9957 H   0  0  0  0  0  0
   25.5929   11.2598   18.5062 C   0  0  0  0  0  0
   26.4060   11.4075   17.8109 H   0  0  0  0  0  0
   27.9170   12.3757   20.2791 C   0  0  0  0  0  0
   27.4199   13.2326   19.8470 H   0  0  0  0  0  0
   29.2278   12.5121   20.7706 C   0  0  0  0  0  0
   30.0172   14.0436   20.6840 Cl  0  0  0  0  0  0
   29.8838   11.4009   21.3314 C   0  0  0  0  0  0
   30.8962   11.4955   21.6967 H   0  0  0  0  0  0
   23.1309    9.5727   25.5517 H   0  0  0  0  0  0
  1  2  1  0  0  0
  2 43  1  0  0  0
  2  3  2  0  0  0
  3  4  1  0  0  0
  3  5  1  0  0  0
  5  6  1  0  0  0
  5 39  2  0  0  0
  6 37  1  0  0  0
  6  7  2  0  0  0
  7  8  1  0  0  0
  7  9  1  0  0  0
  9 33  2  0  0  0
  9 10  1  0  0  0
 10 32  1  0  0  0
 10 22  1  0  0  0
 10 11  1  0  0  0
 11 19  1  0  0  0
 11 12  1  0  0  0
 11 16  1  0  0  0
 12 13  1  0  0  0
 12 14  1  0  0  0
 12 15  1  0  0  0
 16 17  1  0  0  0
 16 18  1  0  0  0
 16 19  1  0  0  0
 19 20  1  0  0  0
 19 21  1  0  0  0
 22 23  2  0  0  0
 22 24  1  0  0  0
 24 25  1  0  0  0
 24 29  1  0  0  0
 25 26  1  0  0  0
 25 27  1  0  0  0
 25 28  1  0  0  0
 29 30  1  0  0  0
 29 32  2  0  0  0
 30 31  1  0  0  0
 30 45  1  0  0  0
 33 34  1  0  0  0
 33 35  1  0  0  0
 35 36  1  0  0  0
 35 37  2  0  0  0
 37 38  1  0  0  0
 39 40  1  0  0  0
 39 41  1  0  0  0
 41 42  1  0  0  0
 41 43  2  0  0  0
 43 44  1  0  0  0
M  END
> <s_m_source_file>
ligprep_bace.smi

> <i_m_source_file_index>
8

> <i_lp_mmshare_version>
53161

> <i_f3d_flags>
0

> <s_epik_input>
W2NIXTFjKENsKVtjSF1bY0hdW2NIXWMxLWMyW2NIXWMoW2NIXVtjSF1bY0hdMilbQ0BdMyhDNChbQ0gzXSlbQ0gyXVtDSDJdNClDKD1PKU4oW0NIM10pQyg9TjMpW05IMl0=

> <s_epik_cmdline>
J2VwaWtfcHl0aG9uJywgJy1waHQnLCAnMC4wJywgJy1waCcsICc3LjQnLCAnLXRuJywgJzgnLCAnLW1hJywgJzUwMCcsICctaW1hZScsICc8aW5maWxlLm1hZT4nLCAnLW9tYWUnLCAnPG91dGZpbGUubWFlPic=

> <r_lp_tautomer_probability>
1

> <r_epik_Ionization_Penalty>
1.4822

> <r_epik_Ionization_Penalty_Charging>
0

> <r_epik_Ionization_Penalty_Neutral>
1.4822

> <r_epik_State_Penalty>
-0

> <r_epik_Charging_Adjusted_Penalty>
0

> <i_epik_Tot_Q>
0

> <i_epik_Tot_abs_Q>
0

> <s_epik_Chemistry_Notes>
This compound has an imine and may undergo hydrolysis.

> <s_lp_Force_Field>
S-OPLS

> <r_lp_Energy>
25.412

> <b_lp_Chiralities_Consistent>
1

> <s_lp_Variant>
lig_CAT-13h-1

> <s_i_glide_gridfile>
glide-grid_4DJW-BACE

> <i_i_glide_lignum>
8

> <i_i_glide_rotatable_bonds>
3

> <r_i_docking_score>
-5.71034

> <r_i_glide_ligand_efficiency>
-0.228414

> <r_i_glide_ligand_efficiency_sa>
-0.667885

> <r_i_glide_ligand_efficiency_ln>
-1.35352

> <r_i_glide_gscore>
-5.71034

> <r_i_glide_lipo>
-2.41929

> <r_i_glide_hbond>
-0.161696

> <r_i_glide_metal>
-0

> <r_i_glide_rewards>
-1.28365

> <r_i_glide_evdw>
-38.1139

> <r_i_glide_ecoul>
-1.85901

> <r_i_glide_erotb>
0.457685

> <r_i_glide_esite>
-0.118842

> <r_i_glide_emodel>
-50.8995

> <r_i_glide_energy>
-39.9729

> <r_i_glide_einternal>
0.691607

> <i_i_glide_confnum>
34

> <i_i_glide_posenum>
90

> <r_i_glide_eff_state_penalty>
-0

> <r_i_glide_rmsd>
0.103694

> <s_glide_core_constrain_type>
snapped_core_restrain
$$$$