lig_CHEMBL3265020
                    3D
 Schrodinger Suite 2021-1.
 48 52  0  0  1  0            999 V2000
    6.2951   -0.8055   17.2447 H   0  0  0  0  0  0
    5.6586   -0.5003   16.4343 C   0  0  0  0  0  0
    5.9133    0.4143   15.4545 C   0  0  0  0  0  0
    6.7669    1.0350   15.2271 H   0  0  0  0  0  0
    4.7531    0.5148   14.7177 N   0  0  0  0  0  0
    3.8333   -0.4091   15.2642 C   0  0  0  0  0  0
    4.3895   -1.0491   16.2934 N   0  0  0  0  0  0
    2.5409   -0.4519   14.6647 C   0  0  0  0  0  0
    1.6103   -1.3569   15.2091 N   0  0  0  0  0  0
    2.0193   -1.9334   15.9348 H   0  0  0  0  0  0
    0.2311   -1.5515   15.0133 C   0  0  0  0  0  0
   -0.3750   -2.5808   15.7638 C   0  0  0  0  0  0
    0.2155   -3.1768   16.4469 H   0  0  0  0  0  0
   -1.7530   -2.8390   15.6524 C   0  0  0  0  0  0
   -2.2003   -3.6231   16.2473 H   0  0  0  0  0  0
   -2.5491   -2.0766   14.7765 C   0  0  0  0  0  0
   -3.8890   -2.3474   14.6793 O   0  0  0  0  0  0
   -4.2176   -3.1209   13.5360 C   0  0  0  0  0  0
   -5.2901   -3.3100   13.5186 H   0  0  0  0  0  0
   -3.7086   -4.0851   13.5583 H   0  0  0  0  0  0
   -3.9521   -2.6121   12.6082 H   0  0  0  0  0  0
   -1.9733   -1.0299   14.0251 C   0  0  0  0  0  0
   -2.8232   -0.2899   13.2268 O   0  0  0  0  0  0
   -2.2626    0.6827   12.3568 C   0  0  0  0  0  0
   -3.0493    1.0925   11.7228 H   0  0  0  0  0  0
   -1.8255    1.5109   12.9154 H   0  0  0  0  0  0
   -1.5085    0.2484   11.6995 H   0  0  0  0  0  0
   -0.5830   -0.7817   14.1460 C   0  0  0  0  0  0
   -0.1553    0.0256   13.5842 H   0  0  0  0  0  0
    2.2248    0.3262   13.6695 N   0  0  0  0  0  0
    3.1493    1.2320   13.1935 C   0  0  0  0  0  0
    2.6899    2.1219   12.1110 C   0  0  0  0  0  0
    3.5925    2.5772   11.1209 C   0  0  0  0  0  0
    4.6272    2.2695   11.1461 H   0  0  0  0  0  0
    3.1569    3.4101   10.0755 C   0  0  0  0  0  0
    3.8559    3.7447    9.3233 H   0  0  0  0  0  0
    1.8045    3.7855   10.0176 C   0  0  0  0  0  0
    0.8616    3.3584   10.9956 C   0  0  0  0  0  0
    1.3409    2.5412   12.0436 C   0  0  0  0  0  0
    0.6462    2.2233   12.8062 H   0  0  0  0  0  0
   -0.4221    3.8954   10.6420 C   0  0  0  0  0  0
   -1.3424    3.7473   11.1864 H   0  0  0  0  0  0
   -0.2453    4.6219    9.4930 C   0  0  0  0  0  0
   -0.9618    5.1832    8.9078 H   0  0  0  0  0  0
    1.0891    4.5609    9.1271 N   0  0  0  0  0  0
    1.4647    5.0422    8.3232 H   0  0  0  0  0  0
    4.4242    1.3284   13.6896 C   0  0  0  0  0  0
    5.1685    2.0432   13.3572 H   0  0  0  0  0  0
  1  2  1  0  0  0
  2  7  1  0  0  0
  2  3  2  0  0  0
  3  4  1  0  0  0
  3  5  1  0  0  0
  5 47  1  0  0  0
  5  6  1  0  0  0
  6  7  2  0  0  0
  6  8  1  0  0  0
  8  9  1  0  0  0
  8 30  2  0  0  0
  9 10  1  0  0  0
  9 11  1  0  0  0
 11 28  1  0  0  0
 11 12  2  0  0  0
 12 13  1  0  0  0
 12 14  1  0  0  0
 14 15  1  0  0  0
 14 16  2  0  0  0
 16 17  1  0  0  0
 16 22  1  0  0  0
 17 18  1  0  0  0
 18 19  1  0  0  0
 18 20  1  0  0  0
 18 21  1  0  0  0
 22 23  1  0  0  0
 22 28  2  0  0  0
 23 24  1  0  0  0
 24 25  1  0  0  0
 24 26  1  0  0  0
 24 27  1  0  0  0
 28 29  1  0  0  0
 30 31  1  0  0  0
 31 32  1  0  0  0
 31 47  2  0  0  0
 32 39  1  0  0  0
 32 33  2  0  0  0
 33 34  1  0  0  0
 33 35  1  0  0  0
 35 36  1  0  0  0
 35 37  2  0  0  0
 37 45  1  0  0  0
 37 38  1  0  0  0
 38 39  2  0  0  0
 38 41  1  0  0  0
 39 40  1  0  0  0
 41 42  1  0  0  0
 41 43  2  0  0  0
 43 44  1  0  0  0
 43 45  1  0  0  0
 45 46  1  0  0  0
 47 48  1  0  0  0
M  END
> <s_m_source_file>
ligprep_syk.smi

> <i_m_source_file_index>
27

> <i_lp_mmshare_version>
53161

> <i_f3d_flags>
0

> <s_epik_input>
W25IXTFbY0hdW2NIXWMoYzEyKVtjSF1jKFtjSF1bY0hdMiktYyhbY0hdMyluYyhjKG4zNCluW2NIXVtjSF00KVtOSF1jNVtjSF1bY0hdYyhPW0NIM10pYyhbY0hdNSlPW0NIM10=

> <s_epik_cmdline>
J2VwaWtfcHl0aG9uJywgJy1waHQnLCAnMC4wJywgJy1waCcsICc3LjQnLCAnLXRuJywgJzgnLCAnLW1hJywgJzUwMCcsICctaW1hZScsICc8aW5maWxlLm1hZT4nLCAnLW9tYWUnLCAnPG91dGZpbGUubWFlPic=

> <r_lp_tautomer_probability>
1

> <r_epik_Ionization_Penalty>
0.0009

> <r_epik_Ionization_Penalty_Charging>
0.0009

> <r_epik_Ionization_Penalty_Neutral>
0

> <r_epik_State_Penalty>
-0

> <r_epik_Charging_Adjusted_Penalty>
0.000851558

> <i_epik_Tot_Q>
0

> <i_epik_Tot_abs_Q>
0

> <s_lp_Force_Field>
S-OPLS

> <r_lp_Energy>
46.1252

> <b_lp_Chiralities_Consistent>
1

> <s_lp_Variant>
lig_CHEMBL3265020-1

> <s_i_glide_gridfile>
glide-grid_4PV0-SYK

> <i_i_glide_lignum>
27

> <i_i_glide_rotatable_bonds>
5

> <r_i_docking_score>
-7.88852

> <r_i_glide_ligand_efficiency>
-0.272018

> <r_i_glide_ligand_efficiency_sa>
-0.835726

> <r_i_glide_ligand_efficiency_ln>
-1.80627

> <r_i_glide_gscore>
-7.88852

> <r_i_glide_lipo>
-2.80196

> <r_i_glide_hbond>
-0.343435

> <r_i_glide_metal>
-0

> <r_i_glide_rewards>
-2.20096

> <r_i_glide_evdw>
-45.8348

> <r_i_glide_ecoul>
-6.03461

> <r_i_glide_erotb>
0.654767

> <r_i_glide_esite>
0

> <r_i_glide_emodel>
-82.9207

> <r_i_glide_energy>
-51.8694

> <r_i_glide_einternal>
-6.51567e-07

> <i_i_glide_confnum>
2

> <i_i_glide_posenum>
1

> <r_i_glide_eff_state_penalty>
-0

> <r_i_glide_rmsd>
0.0686758

> <s_glide_core_constrain_type>
snapped_core_restrain
$$$$