lig_37_L
                    3D
 Schrodinger Suite 2021-1.
 51 54  0  0  1  0            999 V2000
   11.1560   -4.6115   13.7721 H   0  0  0  0  0  0
   10.4032   -4.1881   14.4193 C   0  0  0  0  0  0
    9.8863   -3.0122   14.0027 N   0  0  0  0  0  0
    8.9569   -2.4233   14.7816 C   0  0  0  0  0  0
    8.5446   -1.4905   14.4217 H   0  0  0  0  0  0
    8.5157   -2.9692   15.9985 C   0  0  0  0  0  0
    7.7658   -2.4628   16.5881 H   0  0  0  0  0  0
    9.0699   -4.1900   16.4245 C   0  0  0  0  0  0
    8.7529   -4.6279   17.3596 H   0  0  0  0  0  0
   10.0419   -4.8293   15.6272 C   0  0  0  0  0  0
   10.6690   -6.0870   16.0734 C   0  0  0  0  0  0
   12.0756   -6.2121   16.1346 C   0  0  0  0  0  0
   12.6897   -5.3823   15.8205 H   0  0  0  0  0  0
   12.7069   -7.3696   16.6562 C   0  0  0  0  0  0
   14.2396   -7.4159   16.8159 C   0  0  2  0  0  0
   14.8300   -8.8256   17.0921 C   0  0  0  0  0  0
   15.3356   -9.2323   18.3528 C   0  0  0  0  0  0
   15.2868   -8.5788   19.2101 H   0  0  0  0  0  0
   15.9390  -10.4970   18.5165 C   0  0  0  0  0  0
   16.3340  -10.7761   19.4829 H   0  0  0  0  0  0
   16.0425  -11.3937   17.4329 C   0  0  0  0  0  0
   16.6705  -12.6082   17.5973 O   0  0  0  0  0  0
   18.0868  -12.5169   17.5557 C   0  0  0  0  0  0
   18.5172  -13.5118   17.6619 H   0  0  0  0  0  0
   18.4248  -12.1047   16.6011 H   0  0  0  0  0  0
   18.4762  -11.8892   18.3610 H   0  0  0  0  0  0
   15.4886  -11.0273   16.1850 C   0  0  0  0  0  0
   15.5512  -11.9726   15.0033 C   0  0  0  0  0  0
   14.8977   -9.7537   16.0252 C   0  0  0  0  0  0
   14.5141   -9.4629   15.0569 H   0  0  0  0  0  0
   14.6874   -6.3361   17.8333 C   0  0  0  0  0  0
   14.2748   -6.2459   18.9925 O   0  0  0  0  0  0
   15.5452   -5.5077   17.2452 N   0  0  0  0  0  0
   16.1561   -4.3012   17.7975 C   0  0  0  0  0  0
   15.7432   -3.4124   17.3168 H   0  0  0  0  0  0
   15.9743   -4.2099   18.8691 H   0  0  0  0  0  0
   17.2339   -4.3068   17.6430 H   0  0  0  0  0  0
   15.6600   -5.8985   15.9353 C   0  0  0  0  0  0
   16.5334   -5.2077   15.1239 N   0  0  0  0  0  0
   16.5711   -5.3814   14.1216 H   0  0  0  0  0  0
   14.9085   -6.8942   15.6220 N   0  0  0  0  0  0
   11.8884   -8.4429   17.0807 C   0  0  0  0  0  0
   12.3209   -9.3436   17.4902 H   0  0  0  0  0  0
   10.4868   -8.3497   16.9847 C   0  0  0  0  0  0
    9.8725   -9.1775   17.3081 H   0  0  0  0  0  0
    9.8805   -7.1758   16.5028 C   0  0  0  0  0  0
    8.8018   -7.1134   16.4733 H   0  0  0  0  0  0
   15.1061  -11.5079   14.1204 H   0  0  0  0  0  0
   15.0113  -12.8942   15.2264 H   0  0  0  0  0  0
   16.5876  -12.2227   14.7681 H   0  0  0  0  0  0
   17.0263   -4.3522   15.3660 H   0  0  0  0  0  0
  1  2  1  0  0  0
  2 10  1  0  0  0
  2  3  2  0  0  0
  3  4  1  0  0  0
  4  5  1  0  0  0
  4  6  2  0  0  0
  6  7  1  0  0  0
  6  8  1  0  0  0
  8  9  1  0  0  0
  8 10  2  0  0  0
 10 11  1  0  0  0
 11 46  1  0  0  0
 11 12  2  0  0  0
 12 13  1  0  0  0
 12 14  1  0  0  0
 14 42  2  0  0  0
 14 15  1  0  0  0
 15 41  1  0  0  0
 15 31  1  0  0  0
 15 16  1  0  0  0
 16 29  1  0  0  0
 16 17  2  0  0  0
 17 18  1  0  0  0
 17 19  1  0  0  0
 19 20  1  0  0  0
 19 21  2  0  0  0
 21 22  1  0  0  0
 21 27  1  0  0  0
 22 23  1  0  0  0
 23 24  1  0  0  0
 23 25  1  0  0  0
 23 26  1  0  0  0
 27 28  1  0  0  0
 27 29  2  0  0  0
 28 48  1  0  0  0
 28 49  1  0  0  0
 28 50  1  0  0  0
 29 30  1  0  0  0
 31 32  2  0  0  0
 31 33  1  0  0  0
 33 34  1  0  0  0
 33 38  1  0  0  0
 34 35  1  0  0  0
 34 36  1  0  0  0
 34 37  1  0  0  0
 38 39  1  0  0  0
 38 41  2  0  0  0
 39 40  1  0  0  0
 39 51  1  0  0  0
 42 43  1  0  0  0
 42 44  1  0  0  0
 44 45  1  0  0  0
 44 46  2  0  0  0
 46 47  1  0  0  0
M  END
> <s_m_source_file>
ligprep_bace_p2.smi

> <i_m_source_file_index>
10

> <i_lp_mmshare_version>
53161

> <i_f3d_flags>
0

> <s_epik_input>
W2NIXTFbY0hdW2NIXW5bY0hdYzEtYzJbY0hdYyhbY0hdW2NIXVtjSF0yKVtDQEBdMyhDKD1PKU4oW0NIM10pQyg9TjMpW05IMl0pYzRbY0hdW2NIXWMoT1tDSDNdKWMoW0NIM10pW2NIXTQ=

> <s_epik_cmdline>
J2VwaWtfcHl0aG9uJywgJy1waHQnLCAnMC4wJywgJy1waCcsICc3LjQnLCAnLXRuJywgJzgnLCAnLW1hJywgJzUwMCcsICctaW1hZScsICc8aW5maWxlLm1hZT4nLCAnLW9tYWUnLCAnPG91dGZpbGUubWFlPic=

> <r_lp_tautomer_probability>
1

> <r_epik_Ionization_Penalty>
0.779

> <r_epik_Ionization_Penalty_Charging>
0

> <r_epik_Ionization_Penalty_Neutral>
0.779

> <r_epik_State_Penalty>
-0

> <r_epik_Charging_Adjusted_Penalty>
0

> <i_epik_Tot_Q>
0

> <i_epik_Tot_abs_Q>
0

> <s_epik_Chemistry_Notes>
This compound has an imine and may undergo hydrolysis.

> <s_lp_Force_Field>
S-OPLS

> <r_lp_Energy>
53.431

> <b_lp_Chiralities_Consistent>
1

> <s_lp_Variant>
lig_37_L-1

> <s_i_glide_gridfile>
glide-grid_3IN4-BACE_P2

> <i_i_glide_lignum>
10

> <i_i_glide_rotatable_bonds>
4

> <r_i_docking_score>
-7.08608

> <r_i_glide_ligand_efficiency>
-0.244348

> <r_i_glide_ligand_efficiency_sa>
-0.750713

> <r_i_glide_ligand_efficiency_ln>
-1.62253

> <r_i_glide_gscore>
-7.08608

> <r_i_glide_lipo>
-2.08723

> <r_i_glide_hbond>
-0.917917

> <r_i_glide_metal>
-0

> <r_i_glide_rewards>
-0.774229

> <r_i_glide_evdw>
-42.1613

> <r_i_glide_ecoul>
-10.5574

> <r_i_glide_erotb>
0.521317

> <r_i_glide_esite>
-0.136348

> <r_i_glide_emodel>
-70.5522

> <r_i_glide_energy>
-52.7187

> <r_i_glide_einternal>
8.0021

> <i_i_glide_confnum>
11

> <i_i_glide_posenum>
12

> <r_i_glide_eff_state_penalty>
-0

> <r_i_glide_rmsd>
0.101793

> <s_glide_core_constrain_type>
snapped_core_restrain
$$$$