lig_49585367
                    3D
 Schrodinger Suite 2021-1.
 58 62  0  0  1  0            999 V2000
   11.9222    1.2302  -46.9477 C   0  0  0  0  0  0
   11.4859    1.8747  -45.6487 C   0  0  0  0  0  0
   12.1629    1.6215  -44.4366 C   0  0  0  0  0  0
   13.2034    0.8440  -44.1460 N   0  0  0  0  0  0
   13.3865    0.9615  -42.7653 N   0  0  0  0  0  0
   12.4463    1.7727  -42.2619 C   0  0  0  0  0  0
   11.7395    2.2071  -43.3195 N   0  0  0  0  0  0
   10.6921    3.1403  -43.3285 C   0  0  0  0  0  0
   10.2607    3.9632  -42.2537 C   0  0  0  0  0  0
    9.1974    4.8753  -42.3653 C   0  0  0  0  0  0
    8.5279    5.0186  -43.5893 C   0  0  0  0  0  0
    8.9369    4.2533  -44.6866 C   0  0  0  0  0  0
   10.0054    3.3441  -44.5749 C   0  0  0  0  0  0
   10.4061    2.6833  -45.6910 N   0  0  0  0  0  0
    8.7545    5.6601  -41.1414 C   0  0  0  0  0  0
    8.3545    7.0301  -41.4306 N   0  0  0  0  0  0
    9.4835    7.8622  -41.8470 C   0  0  0  0  0  0
    9.0513    9.3144  -42.1318 C   0  0  0  0  0  0
    8.4142    9.8565  -40.9784 O   0  0  0  0  0  0
    7.2780    9.0987  -40.5746 C   0  0  0  0  0  0
    7.7016    7.6481  -40.2833 C   0  0  0  0  0  0
   12.2958    1.9807  -40.8188 C   0  0  0  0  0  0
   11.0640    1.7423  -40.1737 C   0  0  0  0  0  0
   10.9311    2.0292  -38.7992 C   0  0  0  0  0  0
   12.0900    2.4775  -38.1163 C   0  0  0  0  0  0
   13.2939    2.6316  -38.7061 N   0  0  0  0  0  0
   13.3905    2.3872  -40.0304 C   0  0  0  0  0  0
    9.6827    1.8791  -38.2328 O   0  0  0  0  0  0
    9.4562    2.3407  -36.9047 C   0  0  0  0  0  0
    9.8680    1.2924  -35.8524 C   0  0  0  0  0  0
    9.1770    1.4658  -34.6222 O   0  0  0  0  0  0
    9.5497    2.6371  -33.9085 C   0  0  0  0  0  0
   12.8797    1.6435  -47.2653 H   0  0  0  0  0  0
   12.0345    0.1533  -46.8215 H   0  0  0  0  0  0
   11.1989    1.4029  -47.7464 H   0  0  0  0  0  0
   10.7698    3.9394  -41.3081 H   0  0  0  0  0  0
    7.7058    5.7117  -43.6887 H   0  0  0  0  0  0
    8.4378    4.3776  -45.6383 H   0  0  0  0  0  0
    7.9079    5.1181  -40.7164 H   0  0  0  0  0  0
    9.5409    5.6517  -40.3860 H   0  0  0  0  0  0
   10.2486    7.8610  -41.0672 H   0  0  0  0  0  0
    9.9541    7.4493  -42.7402 H   0  0  0  0  0  0
    8.3741    9.3657  -42.9877 H   0  0  0  0  0  0
    9.9187    9.9262  -42.3756 H   0  0  0  0  0  0
    6.5160    9.1267  -41.3526 H   0  0  0  0  0  0
    6.8435    9.5536  -39.6836 H   0  0  0  0  0  0
    6.8180    7.0705  -40.0038 H   0  0  0  0  0  0
    8.3724    7.6384  -39.4234 H   0  0  0  0  0  0
   10.2056    1.4078  -40.7410 H   0  0  0  0  0  0
   12.0771    2.7205  -37.0657 H   0  0  0  0  0  0
   14.3612    2.5583  -40.4734 H   0  0  0  0  0  0
    8.3800    2.4983  -36.8294 H   0  0  0  0  0  0
    9.9119    3.3158  -36.7250 H   0  0  0  0  0  0
   10.9461    1.2791  -35.6932 H   0  0  0  0  0  0
    9.5961    0.3015  -36.2213 H   0  0  0  0  0  0
    9.0672    2.6366  -32.9304 H   0  0  0  0  0  0
    9.2357    3.5414  -34.4316 H   0  0  0  0  0  0
   10.6284    2.6824  -33.7528 H   0  0  0  0  0  0
  1  2  1  0  0  0
  1 33  1  0  0  0
  1 34  1  0  0  0
  1 35  1  0  0  0
  2 14  2  0  0  0
  2  3  1  0  0  0
  3  7  1  0  0  0
  3  4  2  0  0  0
  4  5  1  0  0  0
  5  6  2  0  0  0
  6  7  1  0  0  0
  6 22  1  0  0  0
  7  8  1  0  0  0
  8 13  1  0  0  0
  8  9  2  0  0  0
  9 10  1  0  0  0
  9 36  1  0  0  0
 10 11  2  0  0  0
 10 15  1  0  0  0
 11 12  1  0  0  0
 11 37  1  0  0  0
 12 13  2  0  0  0
 12 38  1  0  0  0
 13 14  1  0  0  0
 15 16  1  0  0  0
 15 39  1  0  0  0
 15 40  1  0  0  0
 16 21  1  0  0  0
 16 17  1  0  0  0
 17 18  1  0  0  0
 17 41  1  0  0  0
 17 42  1  0  0  0
 18 19  1  0  0  0
 18 43  1  0  0  0
 18 44  1  0  0  0
 19 20  1  0  0  0
 20 21  1  0  0  0
 20 45  1  0  0  0
 20 46  1  0  0  0
 21 47  1  0  0  0
 21 48  1  0  0  0
 22 27  1  0  0  0
 22 23  2  0  0  0
 23 24  1  0  0  0
 23 49  1  0  0  0
 24 25  2  0  0  0
 24 28  1  0  0  0
 25 26  1  0  0  0
 25 50  1  0  0  0
 26 27  2  0  0  0
 27 51  1  0  0  0
 28 29  1  0  0  0
 29 30  1  0  0  0
 29 52  1  0  0  0
 29 53  1  0  0  0
 30 31  1  0  0  0
 30 54  1  0  0  0
 30 55  1  0  0  0
 31 32  1  0  0  0
 32 56  1  0  0  0
 32 57  1  0  0  0
 32 58  1  0  0  0
M  END
> <s_m_source_file>
ligprep_pde2.smi

> <i_m_source_file_index>
17

> <i_lp_mmshare_version>
53161

> <i_f3d_flags>
0

> <s_epik_input>
W0NIMl0xW0NIMl1PW0NIMl1bQ0gyXU4xW0NIMl1jKFtjSF0yKVtjSF1bY0hdYyhuYzNbQ0gzXSljMm4oYzM0KWMobm40KS1jNVtjSF1jKFtjSF1uW2NIXTUpT1tDSDJdW0NIMl1PW0NIM10=

> <s_epik_cmdline>
J2VwaWtfcHl0aG9uJywgJy1waHQnLCAnMC4wJywgJy1waCcsICc3LjQnLCAnLXRuJywgJzgnLCAnLW1hJywgJzUwMCcsICctaW1hZScsICc8aW5maWxlLm1hZT4nLCAnLW9tYWUnLCAnPG91dGZpbGUubWFlPic=

> <r_lp_tautomer_probability>
1

> <r_epik_Ionization_Penalty>
0.1301

> <r_epik_Ionization_Penalty_Charging>
0

> <r_epik_Ionization_Penalty_Neutral>
0.1301

> <r_epik_State_Penalty>
0.1195

> <r_epik_Charging_Adjusted_Penalty>
0.119465

> <i_epik_Tot_Q>
0

> <i_epik_Tot_abs_Q>
0

> <s_lp_Force_Field>
S-OPLS

> <r_lp_Energy>
55.1029

> <b_lp_Chiralities_Consistent>
1

> <s_lp_Variant>
lig_49585367-1

> <s_i_glide_gridfile>
glide-grid_6C7E-PDE2

> <i_i_glide_lignum>
17

> <i_i_glide_rotatable_bonds>
7

> <r_i_docking_score>
-7.70001

> <r_i_glide_ligand_efficiency>
-0.240625

> <r_i_glide_ligand_efficiency_sa>
-0.763938

> <r_i_glide_ligand_efficiency_ln>
-1.72424

> <r_i_glide_gscore>
-7.81951

> <r_i_glide_lipo>
-3.61225

> <r_i_glide_hbond>
-0.586354

> <r_i_glide_metal>
-0

> <r_i_glide_rewards>
-1.08758

> <r_i_glide_evdw>
-43.368

> <r_i_glide_ecoul>
-6.25222

> <r_i_glide_erotb>
0.632989

> <r_i_glide_esite>
-0.0600859

> <r_i_glide_emodel>
-69.5449

> <r_i_glide_energy>
-49.6202

> <r_i_glide_einternal>
2.65803

> <i_i_glide_confnum>
205

> <i_i_glide_posenum>
363

> <r_i_glide_eff_state_penalty>
0.1195

> <r_i_glide_rmsd>
0.101143

> <s_glide_core_constrain_type>
snapped_core_restrain
$$$$