lig_49582390
                    3D
 Schrodinger Suite 2021-1.
 58 63  0  0  1  0            999 V2000
   11.9605    1.2233  -46.9022 C   0  0  0  0  0  0
   11.5240    1.8836  -45.6123 C   0  0  0  0  0  0
   12.2128    1.6568  -44.4036 C   0  0  0  0  0  0
   13.2640    0.8907  -44.1051 N   0  0  0  0  0  0
   13.4710    1.0494  -42.7328 N   0  0  0  0  0  0
   12.5232    1.8560  -42.2429 C   0  0  0  0  0  0
   11.7881    2.2550  -43.2920 N   0  0  0  0  0  0
   10.7242    3.1683  -43.3049 C   0  0  0  0  0  0
   10.2724    3.9896  -42.2368 C   0  0  0  0  0  0
    9.1935    4.8836  -42.3516 C   0  0  0  0  0  0
    8.5300    5.0106  -43.5817 C   0  0  0  0  0  0
    8.9502    4.2417  -44.6729 C   0  0  0  0  0  0
   10.0337    3.3494  -44.5528 C   0  0  0  0  0  0
   10.4354    2.6809  -45.6639 N   0  0  0  0  0  0
    8.7423    5.6787  -41.1355 C   0  0  0  0  0  0
    8.3251    7.0444  -41.4331 N   0  0  0  0  0  0
    9.4385    7.8847  -41.8766 C   0  0  0  0  0  0
    8.9927    9.3216  -42.1864 C   0  0  0  0  0  0
    8.3522    9.8787  -41.0421 O   0  0  0  0  0  0
    7.2342    9.1118  -40.5973 C   0  0  0  0  0  0
    7.6831    7.6713  -40.2868 C   0  0  0  0  0  0
   12.3754    2.0584  -40.8074 C   0  0  0  0  0  0
   11.1578    1.7753  -40.1670 C   0  0  0  0  0  0
   11.0377    2.0011  -38.7759 C   0  0  0  0  0  0
   12.1849    2.4485  -38.0937 C   0  0  0  0  0  0
   13.3783    2.6645  -38.6859 N   0  0  0  0  0  0
   13.4665    2.4756  -40.0188 C   0  0  0  0  0  0
    9.8831    1.8149  -38.0485 O   0  0  0  0  0  0
    8.6924    1.5557  -38.7819 C   0  0  0  0  0  0
    7.5199    1.2971  -37.8542 C   0  0  0  0  0  0
    6.8344   -0.0532  -37.7963 C   0  0  0  0  0  0
    7.6796    0.4063  -36.6417 C   0  0  0  0  0  0
   12.9520    1.5690  -47.1898 H   0  0  0  0  0  0
   11.9985    0.1404  -46.7864 H   0  0  0  0  0  0
   11.2726    1.4508  -47.7185 H   0  0  0  0  0  0
   10.7777    3.9858  -41.2901 H   0  0  0  0  0  0
    7.6958    5.6916  -43.6890 H   0  0  0  0  0  0
    8.4503    4.3516  -45.6274 H   0  0  0  0  0  0
    7.9085    5.1211  -40.6934 H   0  0  0  0  0  0
    9.5289    5.6785  -40.3845 H   0  0  0  0  0  0
   10.2082    7.9111  -41.1032 H   0  0  0  0  0  0
    9.8981    7.4602  -42.7688 H   0  0  0  0  0  0
    8.3159    9.3423  -43.0452 H   0  0  0  0  0  0
    9.8498    9.9469  -42.4550 H   0  0  0  0  0  0
    6.4494    9.1171  -41.3534 H   0  0  0  0  0  0
    6.8237    9.5775  -39.7030 H   0  0  0  0  0  0
    6.8201    7.0807  -39.9818 H   0  0  0  0  0  0
    8.3723    7.6862  -39.4360 H   0  0  0  0  0  0
   10.3321    1.4198  -40.7619 H   0  0  0  0  0  0
   12.1367    2.6278  -37.0287 H   0  0  0  0  0  0
   14.4330    2.6773  -40.4564 H   0  0  0  0  0  0
    8.8173    0.6844  -39.4179 H   0  0  0  0  0  0
    8.4472    2.3958  -39.4298 H   0  0  0  0  0  0
    6.8693    2.1610  -37.7517 H   0  0  0  0  0  0
    7.2240   -0.8552  -38.4200 H   0  0  0  0  0  0
    5.7569   -0.0687  -37.6539 H   0  0  0  0  0  0
    7.1592    0.6817  -35.7323 H   0  0  0  0  0  0
    8.6459   -0.0728  -36.4987 H   0  0  0  0  0  0
  1  2  1  0  0  0
  1 33  1  0  0  0
  1 34  1  0  0  0
  1 35  1  0  0  0
  2 14  2  0  0  0
  2  3  1  0  0  0
  3  7  1  0  0  0
  3  4  2  0  0  0
  4  5  1  0  0  0
  5  6  2  0  0  0
  6  7  1  0  0  0
  6 22  1  0  0  0
  7  8  1  0  0  0
  8 13  1  0  0  0
  8  9  2  0  0  0
  9 10  1  0  0  0
  9 36  1  0  0  0
 10 11  2  0  0  0
 10 15  1  0  0  0
 11 12  1  0  0  0
 11 37  1  0  0  0
 12 13  2  0  0  0
 12 38  1  0  0  0
 13 14  1  0  0  0
 15 16  1  0  0  0
 15 39  1  0  0  0
 15 40  1  0  0  0
 16 21  1  0  0  0
 16 17  1  0  0  0
 17 18  1  0  0  0
 17 41  1  0  0  0
 17 42  1  0  0  0
 18 19  1  0  0  0
 18 43  1  0  0  0
 18 44  1  0  0  0
 19 20  1  0  0  0
 20 21  1  0  0  0
 20 45  1  0  0  0
 20 46  1  0  0  0
 21 47  1  0  0  0
 21 48  1  0  0  0
 22 27  1  0  0  0
 22 23  2  0  0  0
 23 24  1  0  0  0
 23 49  1  0  0  0
 24 25  2  0  0  0
 24 28  1  0  0  0
 25 26  1  0  0  0
 25 50  1  0  0  0
 26 27  2  0  0  0
 27 51  1  0  0  0
 28 29  1  0  0  0
 29 30  1  0  0  0
 29 52  1  0  0  0
 29 53  1  0  0  0
 30 32  1  0  0  0
 30 31  1  0  0  0
 30 54  1  0  0  0
 31 32  1  0  0  0
 31 55  1  0  0  0
 31 56  1  0  0  0
 32 57  1  0  0  0
 32 58  1  0  0  0
M  END
> <s_m_source_file>
ligprep_pde2.smi

> <i_m_source_file_index>
15

> <i_lp_mmshare_version>
53161

> <i_f3d_flags>
0

> <s_epik_input>
W0NIMl0xW0NIMl1PW0NIMl1bQ0gyXU4xW0NIMl1jKFtjSF0yKVtjSF1bY0hdYyhuYzNbQ0gzXSljMm4oYzM0KWMobm40KS1jNVtjSF1jKFtjSF1uW2NIXTUpT1tDSDJdW0NIXTZbQ0gyXVtDSDJdNg==

> <s_epik_cmdline>
J2VwaWtfcHl0aG9uJywgJy1waHQnLCAnMC4wJywgJy1waCcsICc3LjQnLCAnLXRuJywgJzgnLCAnLW1hJywgJzUwMCcsICctaW1hZScsICc8aW5maWxlLm1hZT4nLCAnLW9tYWUnLCAnPG91dGZpbGUubWFlPic=

> <r_lp_tautomer_probability>
1

> <r_epik_Ionization_Penalty>
0.1304

> <r_epik_Ionization_Penalty_Charging>
0

> <r_epik_Ionization_Penalty_Neutral>
0.1304

> <r_epik_State_Penalty>
0.1195

> <r_epik_Charging_Adjusted_Penalty>
0.119465

> <i_epik_Tot_Q>
0

> <i_epik_Tot_abs_Q>
0

> <s_lp_Force_Field>
S-OPLS

> <r_lp_Energy>
59.5329

> <b_lp_Chiralities_Consistent>
1

> <s_lp_Variant>
lig_49582390-1

> <s_i_glide_gridfile>
glide-grid_6C7E-PDE2

> <i_i_glide_lignum>
15

> <i_i_glide_rotatable_bonds>
6

> <r_i_docking_score>
-7.34209

> <r_i_glide_ligand_efficiency>
-0.22944

> <r_i_glide_ligand_efficiency_sa>
-0.728427

> <r_i_glide_ligand_efficiency_ln>
-1.64409

> <r_i_glide_gscore>
-7.46159

> <r_i_glide_lipo>
-3.76936

> <r_i_glide_hbond>
-0.32

> <r_i_glide_metal>
-0

> <r_i_glide_rewards>
-1.10605

> <r_i_glide_evdw>
-42.0093

> <r_i_glide_ecoul>
-4.97092

> <r_i_glide_erotb>
0.643657

> <r_i_glide_esite>
-0.0637326

> <r_i_glide_emodel>
-62.9228

> <r_i_glide_energy>
-46.9802

> <r_i_glide_einternal>
4.94401

> <i_i_glide_confnum>
204

> <i_i_glide_posenum>
14

> <r_i_glide_eff_state_penalty>
0.1195

> <r_i_glide_rmsd>
0.0977955

> <s_glide_core_constrain_type>
snapped_core_restrain
$$$$