lig_2333
                    3D
 Schrodinger Suite 2021-1.
 72 78  0  0  1  0            999 V2000
  -18.0175  -10.0272   33.2939 H   0  0  0  0  0  0
  -18.4918  -10.8209   33.8591 C   0  0  0  0  0  0
  -18.4705  -10.8200   35.2308 C   0  0  0  0  0  0
  -17.6983   -9.8045   35.9944 C   0  0  0  0  0  0
  -17.0870  -10.1008   37.2369 C   0  0  0  0  0  0
  -17.0810  -11.0991   37.6438 H   0  0  0  0  0  0
  -16.5086   -9.1855   38.0285 N   0  0  0  0  0  0
  -16.4330   -7.9138   37.5937 C   0  0  0  0  0  0
  -16.0031   -6.9812   38.5412 N   0  0  0  0  0  0
  -15.0947   -5.9058   38.1596 C   0  0  0  0  0  0
  -14.2384   -5.9308   38.8343 H   0  0  0  0  0  0
  -14.6894   -6.0688   37.1587 H   0  0  0  0  0  0
  -15.7933   -4.5418   38.2403 C   0  0  0  0  0  0
  -16.5541   -4.4713   37.4619 H   0  0  0  0  0  0
  -15.0846   -3.7417   38.0584 H   0  0  0  0  0  0
  -16.4392   -4.3848   39.5671 N   0  3  0  0  0  0
  -16.8609   -3.4630   39.5421 H   0  0  0  0  0  0
  -17.4663   -5.4186   39.8119 C   0  0  0  0  0  0
  -18.2595   -5.3091   39.0719 H   0  0  0  0  0  0
  -17.9253   -5.2701   40.7845 H   0  0  0  0  0  0
  -16.8686   -6.8345   39.7087 C   0  0  0  0  0  0
  -17.6865   -7.5573   39.6790 H   0  0  0  0  0  0
  -16.2893   -7.0929   40.5848 H   0  0  0  0  0  0
  -16.8555   -7.5281   36.3076 C   0  0  0  0  0  0
  -16.7805   -6.5064   35.9633 H   0  0  0  0  0  0
  -17.4864   -8.4930   35.5043 C   0  0  0  0  0  0
  -17.8844   -8.1920   34.5463 H   0  0  0  0  0  0
  -19.0878  -11.8981   35.8302 N   0  0  0  0  0  0
  -19.5921  -12.9943   35.0732 C   0  0  0  0  0  0
  -19.9922  -13.9723   35.8963 N   0  0  0  0  0  0
  -19.8364  -13.4939   37.1970 C   0  0  0  0  0  0
  -20.0939  -14.3189   38.4493 C   0  0  0  0  0  0
  -19.5238  -13.8700   39.2630 H   0  0  0  0  0  0
  -19.7180  -15.3354   38.3319 H   0  0  0  0  0  0
  -21.5738  -14.3627   38.8783 C   0  0  0  0  0  0
  -22.1745  -14.9459   38.1795 H   0  0  0  0  0  0
  -21.8856  -13.3335   38.8274 H   0  0  0  0  0  0
  -21.8727  -14.7587   40.3284 C   0  0  0  0  0  0
  -21.4856  -15.9899   40.7298 N   0  0  0  0  0  0
  -21.5624  -16.3063   42.0452 C   0  0  0  0  0  0
  -21.0857  -17.5560   42.5040 C   0  0  0  0  0  0
  -20.6560  -18.2520   41.8000 H   0  0  0  0  0  0
  -21.1630  -17.9250   43.8598 C   0  0  0  0  0  0
  -20.7970  -18.8885   44.1884 H   0  0  0  0  0  0
  -21.7311  -17.0350   44.7907 C   0  0  0  0  0  0
  -21.7998  -17.3116   45.8318 H   0  0  0  0  0  0
  -22.2056  -15.7815   44.3620 C   0  0  0  0  0  0
  -22.6367  -15.0984   45.0793 H   0  0  0  0  0  0
  -22.1201  -15.4159   43.0043 C   0  0  0  0  0  0
  -22.5841  -14.1601   42.5711 C   0  0  0  0  0  0
  -23.0153  -13.4546   43.2695 H   0  0  0  0  0  0
  -22.4422  -13.8181   41.2151 C   0  0  0  0  0  0
  -22.7358  -12.8368   40.8758 H   0  0  0  0  0  0
  -19.3511  -12.2137   37.1603 C   0  0  0  0  0  0
  -19.1308  -11.5270   37.9593 H   0  0  0  0  0  0
  -19.5158  -12.8831   33.6452 C   0  0  0  0  0  0
  -19.9096  -13.9335   32.7840 N   0  0  0  0  0  0
  -21.1894  -14.6042   33.0022 C   0  0  0  0  0  0
  -21.4534  -14.6835   34.0555 H   0  0  0  0  0  0
  -21.9677  -13.9997   32.5347 H   0  0  0  0  0  0
  -21.1866  -16.0080   32.3645 C   0  0  0  0  0  0
  -22.1863  -16.4429   32.4230 H   0  0  0  0  0  0
  -20.5182  -16.6840   32.8996 H   0  0  0  0  0  0
  -20.7946  -15.9186   30.9945 O   0  0  0  0  0  0
  -19.4803  -15.3871   30.8462 C   0  0  0  0  0  0
  -19.2032  -15.3854   29.7920 H   0  0  0  0  0  0
  -18.7632  -16.0304   31.3567 H   0  0  0  0  0  0
  -19.4373  -13.9539   31.3985 C   0  0  0  0  0  0
  -20.0661  -13.3025   30.7936 H   0  0  0  0  0  0
  -18.4150  -13.5778   31.3343 H   0  0  0  0  0  0
  -19.0176  -11.8161   33.0834 N   0  0  0  0  0  0
  -15.7352   -4.3852   40.2830 H   0  0  0  0  0  0
  1  2  1  0  0  0
  2 71  1  0  0  0
  2  3  2  0  0  0
  3  4  1  0  0  0
  3 28  1  0  0  0
  4 26  1  0  0  0
  4  5  2  0  0  0
  5  6  1  0  0  0
  5  7  1  0  0  0
  7  8  2  0  0  0
  8  9  1  0  0  0
  8 24  1  0  0  0
  9 21  1  0  0  0
  9 10  1  0  0  0
 10 11  1  0  0  0
 10 12  1  0  0  0
 10 13  1  0  0  0
 13 14  1  0  0  0
 13 15  1  0  0  0
 13 16  1  0  0  0
 16 17  1  0  0  0
 16 18  1  0  0  0
 16 72  1  0  0  0
 18 19  1  0  0  0
 18 20  1  0  0  0
 18 21  1  0  0  0
 21 22  1  0  0  0
 21 23  1  0  0  0
 24 25  1  0  0  0
 24 26  2  0  0  0
 26 27  1  0  0  0
 28 54  1  0  0  0
 28 29  1  0  0  0
 29 30  2  0  0  0
 29 56  1  0  0  0
 30 31  1  0  0  0
 31 32  1  0  0  0
 31 54  2  0  0  0
 32 33  1  0  0  0
 32 34  1  0  0  0
 32 35  1  0  0  0
 35 36  1  0  0  0
 35 37  1  0  0  0
 35 38  1  0  0  0
 38 52  1  0  0  0
 38 39  2  0  0  0
 39 40  1  0  0  0
 40 49  2  0  0  0
 40 41  1  0  0  0
 41 42  1  0  0  0
 41 43  2  0  0  0
 43 44  1  0  0  0
 43 45  1  0  0  0
 45 46  1  0  0  0
 45 47  2  0  0  0
 47 48  1  0  0  0
 47 49  1  0  0  0
 49 50  1  0  0  0
 50 51  1  0  0  0
 50 52  2  0  0  0
 52 53  1  0  0  0
 54 55  1  0  0  0
 56 57  1  0  0  0
 56 71  2  0  0  0
 57 68  1  0  0  0
 57 58  1  0  0  0
 58 59  1  0  0  0
 58 60  1  0  0  0
 58 61  1  0  0  0
 61 62  1  0  0  0
 61 63  1  0  0  0
 61 64  1  0  0  0
 64 65  1  0  0  0
 65 66  1  0  0  0
 65 67  1  0  0  0
 65 68  1  0  0  0
 68 69  1  0  0  0
 68 70  1  0  0  0
M  CHG  1  16   1
M  END
> <s_m_source_file>
ligprep_pde10.smi

> <i_m_source_file_index>
11

> <i_lp_mmshare_version>
53161

> <i_f3d_flags>
0

> <s_epik_input>
W0NIMl0xW0NIMl1bTkhdW0NIMl1bQ0gyXU4xYyhbY0hdW2NIXTIpbltjSF1jMi1jM1tjSF1uYyhONFtDSDJdW0NIMl1PW0NIMl1bQ0gyXTQpYyhuMzUpbmMoW2NIXTUpW0NIMl1bQ0gyXWMobjYpW2NIXVtjSF1jKGM2NylbY0hdW2NIXVtjSF1bY0hdNw==

> <s_epik_cmdline>
J2VwaWtfcHl0aG9uJywgJy1waHQnLCAnMC4wJywgJy1waCcsICc3LjQnLCAnLXRuJywgJzgnLCAnLW1hJywgJzUwMCcsICctaW1hZScsICc8aW5maWxlLm1hZT4nLCAnLW9tYWUnLCAnPG91dGZpbGUubWFlPic=

> <r_lp_tautomer_probability>
1

> <r_epik_Ionization_Penalty>
0.03

> <r_epik_Ionization_Penalty_Charging>
0.0248

> <r_epik_Ionization_Penalty_Neutral>
0.0053

> <r_epik_State_Penalty>
-0

> <r_epik_Charging_Adjusted_Penalty>
0.0247631

> <i_epik_Tot_Q>
1

> <i_epik_Tot_abs_Q>
1

> <s_lp_Force_Field>
S-OPLS

> <r_lp_Energy>
81.6114

> <b_lp_Chiralities_Consistent>
1

> <s_lp_Variant>
lig_2333-1

> <s_i_glide_gridfile>
glide-grid_4BBX-PDE10

> <i_i_glide_lignum>
12

> <i_i_glide_rotatable_bonds>
6

> <r_i_docking_score>
-7.70999

> <r_i_glide_ligand_efficiency>
-0.197692

> <r_i_glide_ligand_efficiency_sa>
-0.670416

> <r_i_glide_ligand_efficiency_ln>
-1.65324

> <r_i_glide_gscore>
-7.70999

> <r_i_glide_lipo>
-4.84085

> <r_i_glide_hbond>
-0.377893

> <r_i_glide_metal>
-0

> <r_i_glide_rewards>
-0.314574

> <r_i_glide_evdw>
-48.6242

> <r_i_glide_ecoul>
-0.658652

> <r_i_glide_erotb>
0.453329

> <r_i_glide_esite>
-0.1

> <r_i_glide_emodel>
-49.9869

> <r_i_glide_energy>
-49.2829

> <r_i_glide_einternal>
19.0094

> <i_i_glide_confnum>
164

> <i_i_glide_posenum>
253

> <r_i_glide_eff_state_penalty>
-0

> <r_i_glide_rmsd>
0.0976282

> <s_glide_core_constrain_type>
snapped_core_restrain
$$$$