lig_49137530
                    3D
 Schrodinger Suite 2021-1.
 60 64  0  0  1  0            999 V2000
    6.6255   -0.4979  -37.7542 C   0  0  0  0  0  0
    7.3203    0.6314  -36.9845 C   0  0  0  0  0  0
    7.5291    1.9039  -37.8194 C   0  0  0  0  0  0
    8.7264    1.8269  -38.7752 C   0  0  0  0  0  0
    9.9355    1.9144  -38.0349 O   0  0  0  0  0  0
   11.0982    2.0228  -38.7652 C   0  0  0  0  0  0
   11.1883    1.7883  -40.1576 C   0  0  0  0  0  0
   12.4055    2.0298  -40.8210 C   0  0  0  0  0  0
   13.5231    2.3996  -40.0451 C   0  0  0  0  0  0
   13.4645    2.5855  -38.7102 N   0  0  0  0  0  0
   12.2760    2.4124  -38.0966 C   0  0  0  0  0  0
   12.5328    1.8193  -42.2597 C   0  0  0  0  0  0
   13.4777    1.0156  -42.7680 N   0  0  0  0  0  0
   13.2487    0.8626  -44.1379 N   0  0  0  0  0  0
   12.2002    1.6331  -44.4223 C   0  0  0  0  0  0
   11.7926    2.2320  -43.3037 N   0  0  0  0  0  0
   10.7329    3.1581  -43.3080 C   0  0  0  0  0  0
   10.3018    3.9863  -42.2347 C   0  0  0  0  0  0
    9.2272    4.8931  -42.3408 C   0  0  0  0  0  0
    8.5458    5.0168  -43.5608 C   0  0  0  0  0  0
    8.9499    4.2435  -44.6537 C   0  0  0  0  0  0
   10.0308    3.3482  -44.5463 C   0  0  0  0  0  0
   10.4230    2.6822  -45.6646 N   0  0  0  0  0  0
   11.5035    1.8753  -45.6253 C   0  0  0  0  0  0
   11.9243    1.2232  -46.9278 C   0  0  0  0  0  0
    8.7791    5.6851  -41.1208 C   0  0  0  0  0  0
    8.3237    7.0416  -41.4188 N   0  0  0  0  0  0
    9.4180    7.9144  -41.8372 C   0  0  0  0  0  0
    8.9232    9.3375  -42.1484 C   0  0  0  0  0  0
    8.2229    9.8705  -41.0247 O   0  0  0  0  0  0
    7.1262    9.0632  -40.5972 C   0  0  0  0  0  0
    7.6320    7.6409  -40.2828 C   0  0  0  0  0  0
    6.3548   -1.3162  -37.0861 H   0  0  0  0  0  0
    7.2492   -0.9084  -38.5464 H   0  0  0  0  0  0
    5.7090   -0.1461  -38.2217 H   0  0  0  0  0  0
    6.6921    0.8851  -36.1399 H   0  0  0  0  0  0
    8.2629    0.2812  -36.5643 H   0  0  0  0  0  0
    6.6218    2.1210  -38.3858 H   0  0  0  0  0  0
    7.6815    2.7570  -37.1544 H   0  0  0  0  0  0
    8.7211    0.9006  -39.3537 H   0  0  0  0  0  0
    8.6616    2.6620  -39.4741 H   0  0  0  0  0  0
   10.3409    1.4672  -40.7457 H   0  0  0  0  0  0
   14.4879    2.5593  -40.5058 H   0  0  0  0  0  0
   12.2586    2.6019  -37.0338 H   0  0  0  0  0  0
   10.8217    3.9797  -41.2939 H   0  0  0  0  0  0
    7.7109    5.6959  -43.6622 H   0  0  0  0  0  0
    8.4375    4.3527  -45.5993 H   0  0  0  0  0  0
   12.9273    1.5487  -47.2027 H   0  0  0  0  0  0
   11.9354    0.1393  -46.8269 H   0  0  0  0  0  0
   11.2491    1.4827  -47.7444 H   0  0  0  0  0  0
    7.9642    5.1193  -40.6659 H   0  0  0  0  0  0
    9.5835    5.7146  -40.3826 H   0  0  0  0  0  0
   10.1757    7.9609  -41.0534 H   0  0  0  0  0  0
    9.9113    7.5082  -42.7230 H   0  0  0  0  0  0
    8.2778    9.3420  -43.0275 H   0  0  0  0  0  0
    9.7690    9.9883  -42.3806 H   0  0  0  0  0  0
    6.3359    9.0486  -41.3508 H   0  0  0  0  0  0
    6.7079    9.5129  -39.6991 H   0  0  0  0  0  0
    6.7862    7.0166  -39.9930 H   0  0  0  0  0  0
    8.3020    7.6787  -39.4226 H   0  0  0  0  0  0
  1  2  1  0  0  0
  1 33  1  0  0  0
  1 34  1  0  0  0
  1 35  1  0  0  0
  2  3  1  0  0  0
  2 36  1  0  0  0
  2 37  1  0  0  0
  3  4  1  0  0  0
  3 38  1  0  0  0
  3 39  1  0  0  0
  4  5  1  0  0  0
  4 40  1  0  0  0
  4 41  1  0  0  0
  5  6  1  0  0  0
  6 11  1  0  0  0
  6  7  2  0  0  0
  7  8  1  0  0  0
  7 42  1  0  0  0
  8  9  2  0  0  0
  8 12  1  0  0  0
  9 10  1  0  0  0
  9 43  1  0  0  0
 10 11  2  0  0  0
 11 44  1  0  0  0
 12 16  1  0  0  0
 12 13  2  0  0  0
 13 14  1  0  0  0
 14 15  2  0  0  0
 15 24  1  0  0  0
 15 16  1  0  0  0
 16 17  1  0  0  0
 17 22  1  0  0  0
 17 18  2  0  0  0
 18 19  1  0  0  0
 18 45  1  0  0  0
 19 20  2  0  0  0
 19 26  1  0  0  0
 20 21  1  0  0  0
 20 46  1  0  0  0
 21 22  2  0  0  0
 21 47  1  0  0  0
 22 23  1  0  0  0
 23 24  2  0  0  0
 24 25  1  0  0  0
 25 48  1  0  0  0
 25 49  1  0  0  0
 25 50  1  0  0  0
 26 27  1  0  0  0
 26 51  1  0  0  0
 26 52  1  0  0  0
 27 32  1  0  0  0
 27 28  1  0  0  0
 28 29  1  0  0  0
 28 53  1  0  0  0
 28 54  1  0  0  0
 29 30  1  0  0  0
 29 55  1  0  0  0
 29 56  1  0  0  0
 30 31  1  0  0  0
 31 32  1  0  0  0
 31 57  1  0  0  0
 31 58  1  0  0  0
 32 59  1  0  0  0
 32 60  1  0  0  0
M  END
> <s_m_source_file>
ligprep_pde2.smi

> <i_m_source_file_index>
8

> <i_lp_mmshare_version>
53161

> <i_f3d_flags>
0

> <s_epik_input>
W0NIM11bQ0gyXVtDSDJdW0NIMl1PYzFbY0hdYyhbY0hdbltjSF0xKS1jKG5uMiluKGMyMyljNGMobmMzW0NIM10pW2NIXVtjSF1jKFtjSF00KVtDSDJdTjVbQ0gyXVtDSDJdT1tDSDJdW0NIMl01

> <s_epik_cmdline>
J2VwaWtfcHl0aG9uJywgJy1waHQnLCAnMC4wJywgJy1waCcsICc3LjQnLCAnLXRuJywgJzgnLCAnLW1hJywgJzUwMCcsICctaW1hZScsICc8aW5maWxlLm1hZT4nLCAnLW9tYWUnLCAnPG91dGZpbGUubWFlPic=

> <r_lp_tautomer_probability>
1

> <r_epik_Ionization_Penalty>
0.1304

> <r_epik_Ionization_Penalty_Charging>
0

> <r_epik_Ionization_Penalty_Neutral>
0.1304

> <r_epik_State_Penalty>
0.1195

> <r_epik_Charging_Adjusted_Penalty>
0.119465

> <i_epik_Tot_Q>
0

> <i_epik_Tot_abs_Q>
0

> <s_lp_Force_Field>
S-OPLS

> <r_lp_Energy>
51.5726

> <b_lp_Chiralities_Consistent>
1

> <s_lp_Variant>
lig_49137530-1

> <s_i_glide_gridfile>
glide-grid_6C7E-PDE2

> <i_i_glide_lignum>
8

> <i_i_glide_rotatable_bonds>
7

> <r_i_docking_score>
-7.40957

> <r_i_glide_ligand_efficiency>
-0.231549

> <r_i_glide_ligand_efficiency_sa>
-0.735122

> <r_i_glide_ligand_efficiency_ln>
-1.6592

> <r_i_glide_gscore>
-7.52907

> <r_i_glide_lipo>
-3.78075

> <r_i_glide_hbond>
-0.32

> <r_i_glide_metal>
-0

> <r_i_glide_rewards>
-1.06975

> <r_i_glide_evdw>
-43.2897

> <r_i_glide_ecoul>
-5.08423

> <r_i_glide_erotb>
0.638232

> <r_i_glide_esite>
-0.0696722

> <r_i_glide_emodel>
-64.7889

> <r_i_glide_energy>
-48.374

> <r_i_glide_einternal>
5.38056

> <i_i_glide_confnum>
245

> <i_i_glide_posenum>
8

> <r_i_glide_eff_state_penalty>
0.1195

> <r_i_glide_rmsd>
0.0944859

> <s_glide_core_constrain_type>
snapped_core_restrain
$$$$