lig_CHEMBL3265026
                    3D
 Schrodinger Suite 2021-1.
 51 55  0  0  1  0            999 V2000
    6.3038   -0.8063   17.2392 H   0  0  0  0  0  0
    5.6614   -0.4982   16.4315 C   0  0  0  0  0  0
    5.9086    0.4253   15.4583 C   0  0  0  0  0  0
    6.7531    1.0597   15.2383 H   0  0  0  0  0  0
    4.7491    0.5213   14.7194 N   0  0  0  0  0  0
    3.8344   -0.4085   15.2622 C   0  0  0  0  0  0
    4.3947   -1.0547   16.2846 N   0  0  0  0  0  0
    2.5401   -0.4524   14.6644 C   0  0  0  0  0  0
    1.6129   -1.3586   15.2105 N   0  0  0  0  0  0
    2.0157   -1.9145   15.9559 H   0  0  0  0  0  0
    0.2329   -1.5591   15.0125 C   0  0  0  0  0  0
   -0.3680   -2.5944   15.7593 C   0  0  0  0  0  0
    0.2256   -3.1919   16.4383 H   0  0  0  0  0  0
   -1.7449   -2.8574   15.6450 C   0  0  0  0  0  0
   -2.1888   -3.6491   16.2314 H   0  0  0  0  0  0
   -2.5454   -2.0874   14.7798 C   0  0  0  0  0  0
   -3.8865   -2.3535   14.6896 O   0  0  0  0  0  0
   -4.2247   -3.1224   13.5471 C   0  0  0  0  0  0
   -5.2996   -3.3016   13.5326 H   0  0  0  0  0  0
   -3.7234   -4.0907   13.5685 H   0  0  0  0  0  0
   -3.9556   -2.6144   12.6201 H   0  0  0  0  0  0
   -1.9731   -1.0370   14.0288 C   0  0  0  0  0  0
   -2.8195   -0.2990   13.2247 O   0  0  0  0  0  0
   -2.2479    0.6717   12.3590 C   0  0  0  0  0  0
   -3.0254    1.0928   11.7218 H   0  0  0  0  0  0
   -1.8062    1.4915   12.9264 H   0  0  0  0  0  0
   -1.4929    0.2343   11.7044 H   0  0  0  0  0  0
   -0.5824   -0.7869   14.1487 C   0  0  0  0  0  0
   -0.1530    0.0195   13.5833 H   0  0  0  0  0  0
    2.2198    0.3311   13.6744 N   0  0  0  0  0  0
    3.1407    1.2396   13.1982 C   0  0  0  0  0  0
    2.6826    2.1314   12.1166 C   0  0  0  0  0  0
    3.5914    2.6253   11.1504 C   0  0  0  0  0  0
    4.6363    2.3523   11.1905 H   0  0  0  0  0  0
    3.1568    3.4524   10.0981 C   0  0  0  0  0  0
    3.8655    3.8086    9.3638 H   0  0  0  0  0  0
    1.7956    3.7905    9.9801 C   0  0  0  0  0  0
    0.8758    3.3313   10.9611 C   0  0  0  0  0  0
    1.3272    2.5188   12.0186 C   0  0  0  0  0  0
    0.6184    2.1756   12.7569 H   0  0  0  0  0  0
   -0.4858    3.6646   10.8934 N   0  0  0  0  0  0
   -1.0124    3.6547   11.7565 H   0  0  0  0  0  0
   -0.7950    4.7292    9.9500 C   0  0  0  0  0  0
   -0.5701    5.6963   10.4045 H   0  0  0  0  0  0
   -1.8646    4.7148    9.7329 H   0  0  0  0  0  0
    0.0042    4.5545    8.6473 C   0  0  0  0  0  0
   -0.2294    5.3580    7.9488 H   0  0  0  0  0  0
   -0.2565    3.6175    8.1525 H   0  0  0  0  0  0
    1.4017    4.5723    8.9166 O   0  0  0  0  0  0
    4.4157    1.3378   13.6953 C   0  0  0  0  0  0
    5.1601    2.0551   13.3699 H   0  0  0  0  0  0
  1  2  1  0  0  0
  2  7  1  0  0  0
  2  3  2  0  0  0
  3  4  1  0  0  0
  3  5  1  0  0  0
  5 50  1  0  0  0
  5  6  1  0  0  0
  6  7  2  0  0  0
  6  8  1  0  0  0
  8  9  1  0  0  0
  8 30  2  0  0  0
  9 10  1  0  0  0
  9 11  1  0  0  0
 11 28  1  0  0  0
 11 12  2  0  0  0
 12 13  1  0  0  0
 12 14  1  0  0  0
 14 15  1  0  0  0
 14 16  2  0  0  0
 16 17  1  0  0  0
 16 22  1  0  0  0
 17 18  1  0  0  0
 18 19  1  0  0  0
 18 20  1  0  0  0
 18 21  1  0  0  0
 22 23  1  0  0  0
 22 28  2  0  0  0
 23 24  1  0  0  0
 24 25  1  0  0  0
 24 26  1  0  0  0
 24 27  1  0  0  0
 28 29  1  0  0  0
 30 31  1  0  0  0
 31 32  1  0  0  0
 31 50  2  0  0  0
 32 39  1  0  0  0
 32 33  2  0  0  0
 33 34  1  0  0  0
 33 35  1  0  0  0
 35 36  1  0  0  0
 35 37  2  0  0  0
 37 49  1  0  0  0
 37 38  1  0  0  0
 38 39  2  0  0  0
 38 41  1  0  0  0
 39 40  1  0  0  0
 41 42  1  0  0  0
 41 43  1  0  0  0
 43 44  1  0  0  0
 43 45  1  0  0  0
 43 46  1  0  0  0
 46 47  1  0  0  0
 46 48  1  0  0  0
 46 49  1  0  0  0
 50 51  1  0  0  0
M  END
> <s_m_source_file>
ligprep_syk.smi

> <i_m_source_file_index>
33

> <i_lp_mmshare_version>
53161

> <i_f3d_flags>
0

> <s_epik_input>
W0NIM11PYyhbY0hdMSljKE9bQ0gzXSlbY0hdW2NIXWMxW05IXWMoYyhuMjMpbltjSF1bY0hdMiluYyhbY0hdMyktYyhbY0hdW2NIXTQpW2NIXWMoYzQ1KVtOSF1bQ0gyXVtDSDJdTzU=

> <s_epik_cmdline>
J2VwaWtfcHl0aG9uJywgJy1waHQnLCAnMC4wJywgJy1waCcsICc3LjQnLCAnLXRuJywgJzgnLCAnLW1hJywgJzUwMCcsICctaW1hZScsICc8aW5maWxlLm1hZT4nLCAnLW9tYWUnLCAnPG91dGZpbGUubWFlPic=

> <r_lp_tautomer_probability>
1

> <r_epik_Ionization_Penalty>
0.0016

> <r_epik_Ionization_Penalty_Charging>
0.0014

> <r_epik_Ionization_Penalty_Neutral>
0.0002

> <r_epik_State_Penalty>
-0

> <r_epik_Charging_Adjusted_Penalty>
0.00136682

> <i_epik_Tot_Q>
0

> <i_epik_Tot_abs_Q>
0

> <s_lp_Force_Field>
S-OPLS

> <r_lp_Energy>
46.8096

> <b_lp_Chiralities_Consistent>
1

> <s_lp_Variant>
lig_CHEMBL3265026-1

> <s_i_glide_gridfile>
glide-grid_4PV0-SYK

> <i_i_glide_lignum>
33

> <i_i_glide_rotatable_bonds>
5

> <r_i_docking_score>
-8.08736

> <r_i_glide_ligand_efficiency>
-0.269579

> <r_i_glide_ligand_efficiency_sa>
-0.837644

> <r_i_glide_ligand_efficiency_ln>
-1.83754

> <r_i_glide_gscore>
-8.08736

> <r_i_glide_lipo>
-2.95754

> <r_i_glide_hbond>
-0.339068

> <r_i_glide_metal>
-0

> <r_i_glide_rewards>
-2.07744

> <r_i_glide_evdw>
-46.416

> <r_i_glide_ecoul>
-6.59167

> <r_i_glide_erotb>
0.603144

> <r_i_glide_esite>
-0.00689835

> <r_i_glide_emodel>
-85.1264

> <r_i_glide_energy>
-53.0077

> <r_i_glide_einternal>
1.62062e-07

> <i_i_glide_confnum>
3

> <i_i_glide_posenum>
1

> <r_i_glide_eff_state_penalty>
-0

> <r_i_glide_rmsd>
0.066024

> <s_glide_core_constrain_type>
snapped_core_restrain
$$$$