lig_57
                    3D
 Schrodinger Suite 2021-1.
 50 54  0  0  1  0            999 V2000
   96.7253   45.9158  267.0664 H   0  0  0  0  0  0
   96.0082   46.7084  267.2153 C   0  0  0  0  0  0
   94.7430   46.4815  266.8136 N   0  0  0  0  0  0
   93.8415   47.4813  266.9648 C   0  0  0  0  0  0
   94.2213   48.7246  267.5589 C   0  0  0  0  0  0
   95.4876   48.9072  268.0137 N   0  0  0  0  0  0
   96.3779   47.9168  267.8256 C   0  0  0  0  0  0
   97.3895   48.0945  268.1565 H   0  0  0  0  0  0
   93.2552   49.7533  267.6744 C   0  0  0  0  0  0
   93.5703   51.0448  268.2919 C   0  0  0  0  0  0
   94.5455   51.9128  267.7586 C   0  0  0  0  0  0
   95.0966   51.6148  266.8777 H   0  0  0  0  0  0
   94.7898   53.1686  268.3477 C   0  0  0  0  0  0
   95.5195   53.8312  267.9087 H   0  0  0  0  0  0
   94.0692   53.5894  269.4854 C   0  0  0  0  0  0
   94.0371   54.7767  270.2767 C   0  0  0  0  0  0
   94.6244   55.6666  270.1052 H   0  0  0  0  0  0
   93.1680   54.5391  271.3019 C   0  0  0  0  0  0
   92.8878   55.1716  272.1257 H   0  0  0  0  0  0
   92.6079   53.2828  271.1655 N   0  0  0  0  0  0
   91.6028   52.7263  272.0448 C   0  0  0  0  0  0
   91.5742   53.2917  272.9738 H   0  0  0  0  0  0
   90.4064   52.7702  271.4571 F   0  0  0  0  0  0
   91.9042   51.4698  272.3545 F   0  0  0  0  0  0
   93.1341   52.6804  270.0403 C   0  0  0  0  0  0
   92.8722   51.4358  269.4470 C   0  0  0  0  0  0
   92.1405   50.7769  269.8915 H   0  0  0  0  0  0
   91.9377   49.5367  267.2292 C   0  0  0  0  0  0
   91.2061   50.3233  267.3415 H   0  0  0  0  0  0
   91.5524   48.3152  266.6605 C   0  0  0  0  0  0
   90.2094   48.1378  266.3067 N   0  0  0  0  0  0
   89.5288   48.6725  266.8414 H   0  0  0  0  0  0
   89.6546   47.3111  265.3145 C   0  0  0  0  0  0
   90.3930   46.9172  264.1759 C   0  0  0  0  0  0
   91.4124   47.2400  264.0267 H   0  0  0  0  0  0
   89.9004   46.1210  263.2112 N   0  0  0  0  0  0
   88.6297   45.6968  263.3013 C   0  0  0  0  0  0
   88.2769   45.0557  262.5053 H   0  0  0  0  0  0
   87.7884   46.0401  264.3694 C   0  0  0  0  0  0
   86.7782   45.6580  264.4229 H   0  0  0  0  0  0
   88.3061   46.8697  265.3826 C   0  0  0  0  0  0
   87.2375   47.2076  266.7857 S   0  0  0  0  0  0
   85.8401   47.1574  266.3307 O   0  0  0  0  0  0
   87.7023   48.4218  267.4653 O   0  0  0  0  0  0
   87.5541   45.7645  267.8842 C   0  0  0  0  0  0
   86.9317   45.8385  268.7755 H   0  0  0  0  0  0
   87.3022   44.8534  267.3402 H   0  0  0  0  0  0
   88.6067   45.7360  268.1612 H   0  0  0  0  0  0
   92.5119   47.2935  266.5343 C   0  0  0  0  0  0
   92.2196   46.3450  266.1169 H   0  0  0  0  0  0
  1  2  1  0  0  0
  2  7  1  0  0  0
  2  3  2  0  0  0
  3  4  1  0  0  0
  4 49  1  0  0  0
  4  5  2  0  0  0
  5  6  1  0  0  0
  5  9  1  0  0  0
  6  7  2  0  0  0
  7  8  1  0  0  0
  9 10  1  0  0  0
  9 28  2  0  0  0
 10 26  1  0  0  0
 10 11  2  0  0  0
 11 12  1  0  0  0
 11 13  1  0  0  0
 13 14  1  0  0  0
 13 15  2  0  0  0
 15 25  1  0  0  0
 15 16  1  0  0  0
 16 17  1  0  0  0
 16 18  2  0  0  0
 18 19  1  0  0  0
 18 20  1  0  0  0
 20 21  1  0  0  0
 20 25  1  0  0  0
 21 22  1  0  0  0
 21 23  1  0  0  0
 21 24  1  0  0  0
 25 26  2  0  0  0
 26 27  1  0  0  0
 28 29  1  0  0  0
 28 30  1  0  0  0
 30 31  1  0  0  0
 30 49  2  0  0  0
 31 32  1  0  0  0
 31 33  1  0  0  0
 33 41  1  0  0  0
 33 34  2  0  0  0
 34 35  1  0  0  0
 34 36  1  0  0  0
 36 37  2  0  0  0
 37 38  1  0  0  0
 37 39  1  0  0  0
 39 40  1  0  0  0
 39 41  2  0  0  0
 41 42  1  0  0  0
 42 43  2  0  0  0
 42 44  2  0  0  0
 42 45  1  0  0  0
 45 46  1  0  0  0
 45 47  1  0  0  0
 45 48  1  0  0  0
 49 50  1  0  0  0
M  END
> <s_m_source_file>
ligprep_pfkfb3.smi

> <i_m_source_file_index>
29

> <i_lp_mmshare_version>
53161

> <i_f3d_flags>
0

> <s_epik_input>
W2NIXTFbY0hdbihbQ0hdKEYpRiljKGMxMilbY0hdYyhbY0hdW2NIXTIpLWMoYyhjMzQpbltjSF1bY0hdbjMpW2NIXWMoW2NIXTQpW05IXWM1W2NIXW5bY0hdW2NIXWM1Uyg9TykoPU8pW0NIM10=

> <s_epik_cmdline>
J2VwaWtfcHl0aG9uJywgJy1waHQnLCAnMC4wJywgJy1waCcsICc3LjQnLCAnLXRuJywgJzgnLCAnLW1hJywgJzUwMCcsICctaW1hZScsICc8aW5maWxlLm1hZT4nLCAnLW9tYWUnLCAnPG91dGZpbGUubWFlPic=

> <r_lp_tautomer_probability>
1

> <r_epik_Ionization_Penalty>
0

> <r_epik_Ionization_Penalty_Charging>
0

> <r_epik_Ionization_Penalty_Neutral>
0

> <r_epik_State_Penalty>
-0

> <r_epik_Charging_Adjusted_Penalty>
0

> <i_epik_Tot_Q>
0

> <i_epik_Tot_abs_Q>
0

> <s_lp_Force_Field>
S-OPLS

> <r_lp_Energy>
46.6711

> <b_lp_Chiralities_Consistent>
1

> <s_lp_Variant>
lig_57-1

> <s_i_glide_gridfile>
glide-grid_6HVI-PFKFB3

> <i_i_glide_lignum>
29

> <i_i_glide_rotatable_bonds>
5

> <r_i_docking_score>
-11.8801

> <r_i_glide_ligand_efficiency>
-0.360004

> <r_i_glide_ligand_efficiency_sa>
-1.15472

> <r_i_glide_ligand_efficiency_ln>
-2.64208

> <r_i_glide_gscore>
-11.8801

> <r_i_glide_lipo>
-6.15985

> <r_i_glide_hbond>
-0.32

> <r_i_glide_metal>
-0

> <r_i_glide_rewards>
-1.404

> <r_i_glide_evdw>
-62.4617

> <r_i_glide_ecoul>
-7.79825

> <r_i_glide_erotb>
0.372318

> <r_i_glide_esite>
-0.0757618

> <r_i_glide_emodel>
-114.261

> <r_i_glide_energy>
-70.26

> <r_i_glide_einternal>
0.0955956

> <i_i_glide_confnum>
3

> <i_i_glide_posenum>
3

> <r_i_glide_eff_state_penalty>
-0

> <r_i_glide_rmsd>
0.0897179

> <s_glide_core_constrain_type>
snapped_core_restrain
$$$$