lig_14
                    3D
 Schrodinger Suite 2021-1.
 50 53  0  0  1  0            999 V2000
   30.5461   18.3377    8.7650 H   0  0  0  0  0  0
   29.6096   18.0639    9.2277 C   0  0  0  0  0  0
   28.9567   16.8780    8.8371 C   0  0  0  0  0  0
   29.3966   16.2598    8.0676 H   0  0  0  0  0  0
   27.7200   16.5089    9.4089 C   0  0  0  0  0  0
   26.9990   15.2989    8.9662 C   0  0  0  0  0  0
   27.6879   14.0916    8.7315 C   0  0  0  0  0  0
   28.7565   14.0417    8.8790 H   0  0  0  0  0  0
   27.0007   12.9377    8.3149 C   0  0  0  0  0  0
   27.5448   12.0178    8.1601 H   0  0  0  0  0  0
   25.6073   12.9616    8.1215 C   0  0  0  0  0  0
   24.9996   11.7832    7.7469 O   0  0  0  0  0  0
   23.5926   11.6649    7.9495 C   0  0  0  0  0  0
   23.2978   11.4254    9.4483 C   0  0  0  0  0  0
   22.2265   11.3633    9.6395 H   0  0  0  0  0  0
   23.7432   10.4922    9.7943 H   0  0  0  0  0  0
   23.6941   12.2181   10.0835 H   0  0  0  0  0  0
   23.1704   10.4219    7.1464 C   0  0  0  0  0  0
   22.1033   10.2246    7.2521 H   0  0  0  0  0  0
   23.3819   10.5463    6.0838 H   0  0  0  0  0  0
   23.7071    9.5351    7.4825 H   0  0  0  0  0  0
   22.8870   12.9141    7.3846 C   0  0  0  0  0  0
   21.8044   12.8217    7.4837 H   0  0  0  0  0  0
   23.0820   12.9400    6.3112 H   0  0  0  0  0  0
   23.3916   14.2318    8.0146 C   0  0  1  0  0  0
   23.0112   15.4350    7.1324 C   0  0  0  0  0  0
   23.4213   15.6120    5.9839 O   0  0  0  0  0  0
   22.1834   16.2203    7.8143 N   0  0  0  0  0  0
   21.6027   17.4952    7.4012 C   0  0  0  0  0  0
   22.0218   17.8446    6.4571 H   0  0  0  0  0  0
   20.5214   17.4085    7.2849 H   0  0  0  0  0  0
   21.8098   18.2486    8.1581 H   0  0  0  0  0  0
   21.9765   15.6352    9.0438 C   0  0  0  0  0  0
   21.1217   16.2492    9.9316 N   0  0  0  0  0  0
   21.0791   15.9540   10.9072 H   0  0  0  0  0  0
   22.6292   14.5416    9.2155 N   0  0  0  0  0  0
   24.8978   14.1759    8.3054 C   0  0  0  0  0  0
   25.6015   15.3214    8.7534 C   0  0  0  0  0  0
   25.0614   16.2424    8.9192 H   0  0  0  0  0  0
   27.1818   17.3417   10.4122 C   0  0  0  0  0  0
   26.2439   17.0720   10.8793 H   0  0  0  0  0  0
   27.8257   18.5255   10.8225 C   0  0  0  0  0  0
   27.2071   19.2438   11.8207 O   0  0  0  0  0  0
   27.4056   20.6435   11.8231 C   0  0  0  0  0  0
   26.7199   21.1058   12.5326 H   0  0  0  0  0  0
   28.4181   20.9123   12.1137 H   0  0  0  0  0  0
   27.1916   21.0490   10.8358 H   0  0  0  0  0  0
   29.0462   18.8948   10.2137 C   0  0  0  0  0  0
   29.5725   19.7934   10.5011 H   0  0  0  0  0  0
   20.7007   17.1637    9.8059 H   0  0  0  0  0  0
  1  2  1  0  0  0
  2 48  1  0  0  0
  2  3  2  0  0  0
  3  4  1  0  0  0
  3  5  1  0  0  0
  5  6  1  0  0  0
  5 40  2  0  0  0
  6 38  1  0  0  0
  6  7  2  0  0  0
  7  8  1  0  0  0
  7  9  1  0  0  0
  9 10  1  0  0  0
  9 11  2  0  0  0
 11 37  1  0  0  0
 11 12  1  0  0  0
 12 13  1  0  0  0
 13 14  1  0  0  0
 13 18  1  0  0  0
 13 22  1  0  0  0
 14 15  1  0  0  0
 14 16  1  0  0  0
 14 17  1  0  0  0
 18 19  1  0  0  0
 18 20  1  0  0  0
 18 21  1  0  0  0
 22 23  1  0  0  0
 22 24  1  0  0  0
 22 25  1  0  0  0
 25 36  1  0  0  0
 25 26  1  0  0  0
 25 37  1  0  0  0
 26 27  2  0  0  0
 26 28  1  0  0  0
 28 29  1  0  0  0
 28 33  1  0  0  0
 29 30  1  0  0  0
 29 31  1  0  0  0
 29 32  1  0  0  0
 33 34  1  0  0  0
 33 36  2  0  0  0
 34 35  1  0  0  0
 34 50  1  0  0  0
 37 38  2  0  0  0
 38 39  1  0  0  0
 40 41  1  0  0  0
 40 42  1  0  0  0
 42 43  1  0  0  0
 42 48  2  0  0  0
 43 44  1  0  0  0
 44 45  1  0  0  0
 44 46  1  0  0  0
 44 47  1  0  0  0
 48 49  1  0  0  0
M  END
> <s_m_source_file>
ligprep_bace_hunt.smi

> <i_m_source_file_index>
4

> <i_lp_mmshare_version>
53161

> <i_f3d_flags>
0

> <s_epik_input>
W0NIM11PYyhbY0hdMSlbY0hdW2NIXVtjSF1jMS1jKFtjSF0yKVtjSF1bY0hdYyhPQyhbQ0gzXSkoW0NIM10pW0NIMl0zKWMyW0NAQF0zNEMoPU8pTihbQ0gzXSlDKD1ONClbTkgyXQ==

> <s_epik_cmdline>
J2VwaWtfcHl0aG9uJywgJy1waHQnLCAnMC4wJywgJy1waCcsICc3LjQnLCAnLXRuJywgJzgnLCAnLW1hJywgJzUwMCcsICctaW1hZScsICc8aW5maWxlLm1hZT4nLCAnLW9tYWUnLCAnPG91dGZpbGUubWFlPic=

> <r_lp_tautomer_probability>
1

> <r_epik_Ionization_Penalty>
1.0455

> <r_epik_Ionization_Penalty_Charging>
0

> <r_epik_Ionization_Penalty_Neutral>
1.0455

> <r_epik_State_Penalty>
-0

> <r_epik_Charging_Adjusted_Penalty>
0

> <i_epik_Tot_Q>
0

> <i_epik_Tot_abs_Q>
0

> <s_epik_Chemistry_Notes>
This compound has an imine and may undergo hydrolysis.

> <s_lp_Force_Field>
S-OPLS

> <r_lp_Energy>
40.0897

> <b_lp_Chiralities_Consistent>
1

> <s_lp_Variant>
lig_14-1

> <s_i_glide_gridfile>
glide-grid_4JPC-BACE_HUNT

> <i_i_glide_lignum>
4

> <i_i_glide_rotatable_bonds>
2

> <r_i_docking_score>
-6.53435

> <r_i_glide_ligand_efficiency>
-0.242013

> <r_i_glide_ligand_efficiency_sa>
-0.726039

> <r_i_glide_ligand_efficiency_ln>
-1.52109

> <r_i_glide_gscore>
-6.53435

> <r_i_glide_lipo>
-2.53655

> <r_i_glide_hbond>
-0.23162

> <r_i_glide_metal>
-0

> <r_i_glide_rewards>
-1.12918

> <r_i_glide_evdw>
-42.1547

> <r_i_glide_ecoul>
-4.46605

> <r_i_glide_erotb>
0.288102

> <r_i_glide_esite>
-0.147454

> <r_i_glide_emodel>
-61.117

> <r_i_glide_energy>
-46.6208

> <r_i_glide_einternal>
4.96533

> <i_i_glide_confnum>
32

> <i_i_glide_posenum>
25

> <r_i_glide_eff_state_penalty>
-0

> <r_i_glide_rmsd>
0.101523

> <s_glide_core_constrain_type>
snapped_core_restrain
$$$$