lig_30
                    3D
 Schrodinger Suite 2021-1.
 51 54  0  0  1  0            999 V2000
   27.5641   12.0521    8.1683 H   0  0  0  0  0  0
   27.0135   12.9679    8.3290 C   0  0  0  0  0  0
   25.6230   12.9916    8.1147 C   0  0  0  0  0  0
   25.0232   11.8170    7.7145 O   0  0  0  0  0  0
   23.6180   11.6874    7.9243 C   0  0  0  0  0  0
   23.3320   11.4401    9.4242 C   0  0  0  0  0  0
   22.2589   11.3848    9.6142 H   0  0  0  0  0  0
   23.7669   10.4972    9.7557 H   0  0  0  0  0  0
   23.7369   12.2219   10.0681 H   0  0  0  0  0  0
   23.1932   10.4446    7.1211 C   0  0  0  0  0  0
   22.1275   10.2436    7.2353 H   0  0  0  0  0  0
   23.3938   10.5734    6.0588 H   0  0  0  0  0  0
   23.7336    9.5587    7.4552 H   0  0  0  0  0  0
   22.9052   12.9359    7.3656 C   0  0  0  0  0  0
   21.8214   12.8412    7.4604 H   0  0  0  0  0  0
   23.1051   12.9643    6.2904 H   0  0  0  0  0  0
   23.4003   14.2527    8.0044 C   0  0  1  0  0  0
   23.0222   15.4570    7.1235 C   0  0  0  0  0  0
   23.4488   15.6461    5.9821 O   0  0  0  0  0  0
   22.1778   16.2262    7.7992 N   0  0  0  0  0  0
   21.6014   17.4996    7.3854 C   0  0  0  0  0  0
   21.9740   17.8380    6.4142 H   0  0  0  0  0  0
   20.5150   17.4235    7.3240 H   0  0  0  0  0  0
   21.8382   18.2534    8.1332 H   0  0  0  0  0  0
   21.9721   15.6439    9.0332 C   0  0  0  0  0  0
   21.1313   16.2603    9.9352 N   0  0  0  0  0  0
   21.0833   15.9603   10.9066 H   0  0  0  0  0  0
   22.6265   14.5517    9.2017 N   0  0  0  0  0  0
   24.9037   14.2009    8.3104 C   0  0  0  0  0  0
   25.5933   15.3419    8.7913 C   0  0  0  0  0  0
   25.0399   16.2551    8.9544 H   0  0  0  0  0  0
   26.9874   15.3160    9.0328 C   0  0  0  0  0  0
   27.6672   16.4588    9.5037 N   0  0  0  0  0  0
   27.0438   17.3847   10.4472 C   0  0  0  0  0  0
   26.0210   17.1010   10.6935 H   0  0  0  0  0  0
   27.6016   17.3400   11.3834 H   0  0  0  0  0  0
   27.1097   18.8225    9.9055 C   0  0  0  0  0  0
   26.4762   18.9030    9.0213 H   0  0  0  0  0  0
   26.7082   19.5180   10.6439 H   0  0  0  0  0  0
   28.5600   19.2018    9.5498 C   0  0  0  0  0  0
   29.1645   19.2358   10.4571 H   0  0  0  0  0  0
   28.5960   20.2006    9.1152 H   0  0  0  0  0  0
   29.1581   18.1796    8.5652 C   0  0  0  0  0  0
   30.2023   18.4186    8.3619 H   0  0  0  0  0  0
   28.6338   18.2482    7.6117 H   0  0  0  0  0  0
   29.0436   16.7407    9.1021 C   0  0  0  0  0  0
   29.6965   16.6145    9.9671 H   0  0  0  0  0  0
   29.3881   16.0490    8.3342 H   0  0  0  0  0  0
   27.6885   14.1162    8.7797 C   0  0  0  0  0  0
   28.7514   14.0508    8.9544 H   0  0  0  0  0  0
   20.7066   17.1734    9.8089 H   0  0  0  0  0  0
  1  2  1  0  0  0
  2 49  1  0  0  0
  2  3  2  0  0  0
  3 29  1  0  0  0
  3  4  1  0  0  0
  4  5  1  0  0  0
  5  6  1  0  0  0
  5 10  1  0  0  0
  5 14  1  0  0  0
  6  7  1  0  0  0
  6  8  1  0  0  0
  6  9  1  0  0  0
 10 11  1  0  0  0
 10 12  1  0  0  0
 10 13  1  0  0  0
 14 15  1  0  0  0
 14 16  1  0  0  0
 14 17  1  0  0  0
 17 28  1  0  0  0
 17 18  1  0  0  0
 17 29  1  0  0  0
 18 19  2  0  0  0
 18 20  1  0  0  0
 20 21  1  0  0  0
 20 25  1  0  0  0
 21 22  1  0  0  0
 21 23  1  0  0  0
 21 24  1  0  0  0
 25 26  1  0  0  0
 25 28  2  0  0  0
 26 27  1  0  0  0
 26 51  1  0  0  0
 29 30  2  0  0  0
 30 31  1  0  0  0
 30 32  1  0  0  0
 32 33  1  0  0  0
 32 49  2  0  0  0
 33 46  1  0  0  0
 33 34  1  0  0  0
 34 35  1  0  0  0
 34 36  1  0  0  0
 34 37  1  0  0  0
 37 38  1  0  0  0
 37 39  1  0  0  0
 37 40  1  0  0  0
 40 41  1  0  0  0
 40 42  1  0  0  0
 40 43  1  0  0  0
 43 44  1  0  0  0
 43 45  1  0  0  0
 43 46  1  0  0  0
 46 47  1  0  0  0
 46 48  1  0  0  0
 49 50  1  0  0  0
M  END
> <s_m_source_file>
ligprep_bace_hunt.smi

> <i_m_source_file_index>
21

> <i_lp_mmshare_version>
53161

> <i_f3d_flags>
0

> <s_epik_input>
W05IMl1DKD1OMSlOKFtDSDNdKUMoPU8pW0NAQF0xMmMzYyhPQyhbQ0gzXSkoW0NIM10pW0NIMl0yKVtjSF1bY0hdYyhbY0hdMylONFtDSDJdW0NIMl1bQ0gyXVtDSDJdW0NIMl00

> <s_epik_cmdline>
J2VwaWtfcHl0aG9uJywgJy1waHQnLCAnMC4wJywgJy1waCcsICc3LjQnLCAnLXRuJywgJzgnLCAnLW1hJywgJzUwMCcsICctaW1hZScsICc8aW5maWxlLm1hZT4nLCAnLW9tYWUnLCAnPG91dGZpbGUubWFlPic=

> <r_lp_tautomer_probability>
1

> <r_epik_Ionization_Penalty>
1.1754

> <r_epik_Ionization_Penalty_Charging>
0

> <r_epik_Ionization_Penalty_Neutral>
1.1754

> <r_epik_State_Penalty>
-0

> <r_epik_Charging_Adjusted_Penalty>
0

> <i_epik_Tot_Q>
0

> <i_epik_Tot_abs_Q>
0

> <s_epik_Chemistry_Notes>
This compound has an imine and may undergo hydrolysis.

> <s_lp_Force_Field>
S-OPLS

> <r_lp_Energy>
35.8241

> <b_lp_Chiralities_Consistent>
1

> <s_lp_Variant>
lig_30-1

> <s_i_glide_gridfile>
glide-grid_4JPC-BACE_HUNT

> <i_i_glide_lignum>
21

> <i_i_glide_rotatable_bonds>
1

> <r_i_docking_score>
-6.08805

> <r_i_glide_ligand_efficiency>
-0.243522

> <r_i_glide_ligand_efficiency_sa>
-0.712062

> <r_i_glide_ligand_efficiency_ln>
-1.44305

> <r_i_glide_gscore>
-6.08805

> <r_i_glide_lipo>
-1.82298

> <r_i_glide_hbond>
-0.233804

> <r_i_glide_metal>
-0

> <r_i_glide_rewards>
-1.58697

> <r_i_glide_evdw>
-35.4129

> <r_i_glide_ecoul>
-4.58734

> <r_i_glide_erotb>
0.16171

> <r_i_glide_esite>
-0.147256

> <r_i_glide_emodel>
-55.8302

> <r_i_glide_energy>
-40.0003

> <r_i_glide_einternal>
0.00220594

> <i_i_glide_confnum>
29

> <i_i_glide_posenum>
19

> <r_i_glide_eff_state_penalty>
-0

> <r_i_glide_rmsd>
0.0891927

> <s_glide_core_constrain_type>
snapped_core_restrain
$$$$