lig_8161
                    3D
 Schrodinger Suite 2021-1.
 60 65  0  0  1  0            999 V2000
  -17.9813  -10.1146   33.2398 H   0  0  0  0  0  0
  -18.4656  -10.8846   33.8305 C   0  0  0  0  0  0
  -18.4792  -10.8391   35.2000 C   0  0  0  0  0  0
  -17.7957   -9.7256   35.9098 C   0  0  0  0  0  0
  -17.2425   -9.8592   37.2058 C   0  0  0  0  0  0
  -17.2182  -10.8131   37.7065 H   0  0  0  0  0  0
  -16.7309   -8.7459   37.8990 C   0  0  0  0  0  0
  -16.3878   -8.8640   38.9170 H   0  0  0  0  0  0
  -16.6923   -7.4789   37.2824 C   0  0  0  0  0  0
  -16.2944   -6.2563   38.0510 C   0  0  0  0  0  0
  -16.2449   -6.3248   39.2989 O   0  0  0  0  0  0
  -16.0777   -5.2047   37.4118 O   0  5  0  0  0  0
  -17.0859   -7.3647   35.9365 C   0  0  0  0  0  0
  -17.0505   -6.4092   35.4325 H   0  0  0  0  0  0
  -17.6444   -8.4672   35.2716 C   0  0  0  0  0  0
  -18.0238   -8.2910   34.2772 H   0  0  0  0  0  0
  -19.1008  -11.9024   35.8272 N   0  0  0  0  0  0
  -19.5925  -13.0233   35.0942 C   0  0  0  0  0  0
  -20.0038  -13.9828   35.9399 N   0  0  0  0  0  0
  -19.8382  -13.4764   37.2227 C   0  0  0  0  0  0
  -20.0261  -14.2884   38.4812 C   0  0  0  0  0  0
  -19.4701  -15.2239   38.4432 H   0  0  0  0  0  0
  -19.5916  -13.7148   39.2979 H   0  0  0  0  0  0
  -21.4838  -14.5896   38.8333 C   0  0  0  0  0  0
  -22.0496  -13.7345   38.4977 H   0  0  0  0  0  0
  -21.8589  -15.4460   38.2737 H   0  0  0  0  0  0
  -21.7325  -14.7566   40.3286 C   0  0  0  0  0  0
  -21.4856  -15.9642   40.8892 N   0  0  0  0  0  0
  -21.6361  -16.1080   42.2325 C   0  0  0  0  0  0
  -21.3276  -17.3359   42.8644 C   0  0  0  0  0  0
  -20.9715  -18.1628   42.2695 H   0  0  0  0  0  0
  -21.4841  -17.5131   44.2525 C   0  0  0  0  0  0
  -21.2476  -18.4644   44.7075 H   0  0  0  0  0  0
  -21.9486  -16.4492   45.0437 C   0  0  0  0  0  0
  -22.0718  -16.5838   46.1091 H   0  0  0  0  0  0
  -22.2522  -15.2120   44.4459 C   0  0  0  0  0  0
  -22.6061  -14.3968   45.0605 H   0  0  0  0  0  0
  -22.0942  -15.0420   43.0543 C   0  0  0  0  0  0
  -22.3809  -13.7992   42.4591 C   0  0  0  0  0  0
  -22.7263  -12.9649   43.0534 H   0  0  0  0  0  0
  -22.1885  -13.6503   41.0758 C   0  0  0  0  0  0
  -22.3758  -12.6974   40.6023 H   0  0  0  0  0  0
  -19.3867  -12.1892   37.1592 C   0  0  0  0  0  0
  -19.1707  -11.4828   37.9432 H   0  0  0  0  0  0
  -19.4998  -12.9322   33.6596 C   0  0  0  0  0  0
  -19.8971  -13.9870   32.8082 N   0  0  0  0  0  0
  -19.3957  -14.0362   31.4341 C   0  0  0  0  0  0
  -18.3629  -13.6899   31.3815 H   0  0  0  0  0  0
  -19.9939  -13.3715   30.8087 H   0  0  0  0  0  0
  -19.4622  -15.4753   30.8929 C   0  0  0  0  0  0
  -19.1745  -15.4917   29.8418 H   0  0  0  0  0  0
  -18.7610  -16.1216   31.4222 H   0  0  0  0  0  0
  -20.7878  -15.9792   31.0248 O   0  0  0  0  0  0
  -21.2030  -16.0298   32.3880 C   0  0  0  0  0  0
  -22.2071  -16.4509   32.4347 H   0  0  0  0  0  0
  -20.5560  -16.7029   32.9522 H   0  0  0  0  0  0
  -21.2021  -14.6131   32.9965 C   0  0  0  0  0  0
  -21.9538  -13.9996   32.4985 H   0  0  0  0  0  0
  -21.4929  -14.6666   34.0434 H   0  0  0  0  0  0
  -18.9870  -11.8857   33.0748 N   0  0  0  0  0  0
  1  2  1  0  0  0
  2 60  1  0  0  0
  2  3  2  0  0  0
  3  4  1  0  0  0
  3 17  1  0  0  0
  4 15  1  0  0  0
  4  5  2  0  0  0
  5  6  1  0  0  0
  5  7  1  0  0  0
  7  8  1  0  0  0
  7  9  2  0  0  0
  9 10  1  0  0  0
  9 13  1  0  0  0
 10 11  2  0  0  0
 10 12  1  0  0  0
 13 14  1  0  0  0
 13 15  2  0  0  0
 15 16  1  0  0  0
 17 43  1  0  0  0
 17 18  1  0  0  0
 18 19  2  0  0  0
 18 45  1  0  0  0
 19 20  1  0  0  0
 20 21  1  0  0  0
 20 43  2  0  0  0
 21 22  1  0  0  0
 21 23  1  0  0  0
 21 24  1  0  0  0
 24 25  1  0  0  0
 24 26  1  0  0  0
 24 27  1  0  0  0
 27 41  1  0  0  0
 27 28  2  0  0  0
 28 29  1  0  0  0
 29 38  2  0  0  0
 29 30  1  0  0  0
 30 31  1  0  0  0
 30 32  2  0  0  0
 32 33  1  0  0  0
 32 34  1  0  0  0
 34 35  1  0  0  0
 34 36  2  0  0  0
 36 37  1  0  0  0
 36 38  1  0  0  0
 38 39  1  0  0  0
 39 40  1  0  0  0
 39 41  2  0  0  0
 41 42  1  0  0  0
 43 44  1  0  0  0
 45 46  1  0  0  0
 45 60  2  0  0  0
 46 57  1  0  0  0
 46 47  1  0  0  0
 47 48  1  0  0  0
 47 49  1  0  0  0
 47 50  1  0  0  0
 50 51  1  0  0  0
 50 52  1  0  0  0
 50 53  1  0  0  0
 53 54  1  0  0  0
 54 55  1  0  0  0
 54 56  1  0  0  0
 54 57  1  0  0  0
 57 58  1  0  0  0
 57 59  1  0  0  0
M  CHG  1  12  -1
M  END
> <s_m_source_file>
ligprep_pde10.smi

> <i_m_source_file_index>
32

> <i_lp_mmshare_version>
53161

> <i_f3d_flags>
0

> <s_epik_input>
Tz1DKFtPSF0pYyhbY0hdW2NIXTEpW2NIXVtjSF1jMS1jMltjSF1uYyhOM1tDSDJdW0NIMl1PW0NIMl1bQ0gyXTMpYyhuMjQpbmMoW2NIXTQpW0NIMl1bQ0gyXWMobjUpW2NIXVtjSF1jKGM1NilbY0hdW2NIXVtjSF1bY0hdNg==

> <s_epik_cmdline>
J2VwaWtfcHl0aG9uJywgJy1waHQnLCAnMC4wJywgJy1waCcsICc3LjQnLCAnLXRuJywgJzgnLCAnLW1hJywgJzUwMCcsICctaW1hZScsICc8aW5maWxlLm1hZT4nLCAnLW9tYWUnLCAnPG91dGZpbGUubWFlPic=

> <r_lp_tautomer_probability>
1

> <r_epik_Ionization_Penalty>
0.0055

> <r_epik_Ionization_Penalty_Charging>
0.0007

> <r_epik_Ionization_Penalty_Neutral>
0.0048

> <r_epik_State_Penalty>
-0

> <r_epik_Charging_Adjusted_Penalty>
0.000718479

> <i_epik_Tot_Q>
-1

> <i_epik_Tot_abs_Q>
1

> <s_lp_Force_Field>
S-OPLS

> <r_lp_Energy>
61.0898

> <b_lp_Chiralities_Consistent>
1

> <s_lp_Variant>
lig_8161-1

> <s_i_glide_gridfile>
glide-grid_4BBX-PDE10

> <i_i_glide_lignum>
33

> <i_i_glide_rotatable_bonds>
6

> <r_i_docking_score>
-8.60883

> <r_i_glide_ligand_efficiency>
-0.239134

> <r_i_glide_ligand_efficiency_sa>
-0.789604

> <r_i_glide_ligand_efficiency_ln>
-1.87821

> <r_i_glide_gscore>
-8.60883

> <r_i_glide_lipo>
-4.74661

> <r_i_glide_hbond>
-0.255288

> <r_i_glide_metal>
-0

> <r_i_glide_rewards>
-0.478262

> <r_i_glide_evdw>
-46.2496

> <r_i_glide_ecoul>
-8.39128

> <r_i_glide_erotb>
0.442501

> <r_i_glide_esite>
0

> <r_i_glide_emodel>
-67.6773

> <r_i_glide_energy>
-54.6409

> <r_i_glide_einternal>
16.1098

> <i_i_glide_confnum>
84

> <i_i_glide_posenum>
50

> <r_i_glide_eff_state_penalty>
-0

> <r_i_glide_rmsd>
0.106981

> <s_glide_core_constrain_type>
snapped_core_restrain
$$$$