lig_338
                    3D
 Schrodinger Suite 2021-1.
 37 39  0  0  1  0            999 V2000
   28.3445    2.0440  -11.6852 H   0  0  0  0  0  0
   27.6921    1.6712  -11.0979 O   0  0  0  0  0  0
   27.3163    0.4048  -11.6079 C   0  0  1  0  0  0
   28.1725   -0.2633  -11.6325 H   0  0  0  0  0  0
   26.1651   -0.1287  -10.7974 C   0  0  0  0  0  0
   24.9689    0.0308  -11.4880 C   0  0  0  0  0  0
   23.7353   -0.3420  -10.9347 C   0  0  0  0  0  0
   22.6175   -0.1990  -11.7171 O   0  0  0  0  0  0
   21.3897   -0.4953  -11.2004 C   0  0  0  0  0  0
   20.8178   -1.7624  -11.4142 C   0  0  0  0  0  0
   21.3548   -2.5149  -11.9732 H   0  0  0  0  0  0
   19.5447   -2.0469  -10.8886 C   0  0  0  0  0  0
   18.9860   -3.2585  -11.0919 F   0  0  0  0  0  0
   18.8407   -1.0673  -10.1647 C   0  0  0  0  0  0
   17.8703   -1.3081   -9.7613 H   0  0  0  0  0  0
   19.4052    0.2091   -9.9739 C   0  0  0  0  0  0
   18.6884    1.2490   -9.2616 C   0  0  0  0  0  0
   18.1223    2.0792   -8.6859 N   0  0  0  0  0  0
   20.6865    0.4833  -10.4774 C   0  0  0  0  0  0
   21.1314    1.4526  -10.3079 H   0  0  0  0  0  0
   23.7298   -0.8395   -9.6059 C   0  0  0  0  0  0
   22.8072   -1.1280   -9.1240 H   0  0  0  0  0  0
   24.9407   -0.9928   -8.8928 C   0  0  0  0  0  0
   24.9174   -1.3828   -7.8870 H   0  0  0  0  0  0
   26.1744   -0.6624   -9.4946 C   0  0  0  0  0  0
   27.6888   -0.9251   -8.5770 S   0  0  0  0  0  0
   27.4295   -1.8668   -7.4825 O   0  0  0  0  0  0
   28.7885   -1.1999   -9.5063 O   0  0  0  0  0  0
   27.9754    0.6186   -7.8915 N   0  0  0  0  0  0
   28.7696    0.5885   -7.2557 H   0  0  0  0  0  0
   28.1462    1.3058   -8.6278 H   0  0  0  0  0  0
   25.1881    0.6678  -12.8303 C   0  0  1  0  0  0
   24.5902    0.2359  -13.6312 H   0  0  0  0  0  0
   24.8670    1.9502  -12.6818 F   0  0  0  0  0  0
   26.7078    0.5332  -13.0282 C   0  0  0  0  0  0
   27.2405    1.5027  -13.7731 F   0  0  0  0  0  0
   26.9152   -0.6171  -13.6766 F   0  0  0  0  0  0
  1  2  1  0  0  0
  2  3  1  0  0  0
  3 35  1  0  0  0
  3  4  1  0  0  0
  3  5  1  0  0  0
  5 25  1  0  0  0
  5  6  2  0  0  0
  6  7  1  0  0  0
  6 32  1  0  0  0
  7  8  1  0  0  0
  7 21  2  0  0  0
  8  9  1  0  0  0
  9 19  1  0  0  0
  9 10  2  0  0  0
 10 11  1  0  0  0
 10 12  1  0  0  0
 12 13  1  0  0  0
 12 14  2  0  0  0
 14 15  1  0  0  0
 14 16  1  0  0  0
 16 17  1  0  0  0
 16 19  2  0  0  0
 17 18  3  0  0  0
 19 20  1  0  0  0
 21 22  1  0  0  0
 21 23  1  0  0  0
 23 24  1  0  0  0
 23 25  2  0  0  0
 25 26  1  0  0  0
 26 27  2  0  0  0
 26 28  2  0  0  0
 26 29  1  0  0  0
 29 30  1  0  0  0
 29 31  1  0  0  0
 32 33  1  0  0  0
 32 34  1  0  0  0
 32 35  1  0  0  0
 35 36  1  0  0  0
 35 37  1  0  0  0
M  END
> <s_m_source_file>
ligprep_hif2a.smi

> <i_m_source_file_index>
30

> <i_lp_mmshare_version>
53161

> <i_f3d_flags>
0

> <s_epik_input>
W09IXVtDQEBIXTFDKEYpKEYpW0NASF0oRiljKGMxMiljKFtjSF1bY0hdYzJTKD1PKSg9TylbTkgyXSlPYzNbY0hdYyhGKVtjSF1jKEMjTilbY0hdMw==

> <s_epik_cmdline>
J2VwaWtfcHl0aG9uJywgJy1waHQnLCAnMC4wJywgJy1waCcsICc3LjQnLCAnLXRuJywgJzgnLCAnLW1hJywgJzUwMCcsICctaW1hZScsICc8aW5maWxlLm1hZT4nLCAnLW9tYWUnLCAnPG91dGZpbGUubWFlPic=

> <r_lp_tautomer_probability>
1

> <r_epik_Ionization_Penalty>
0.018

> <r_epik_Ionization_Penalty_Charging>
0

> <r_epik_Ionization_Penalty_Neutral>
0.018

> <r_epik_State_Penalty>
-0

> <r_epik_Charging_Adjusted_Penalty>
0

> <i_epik_Tot_Q>
0

> <i_epik_Tot_abs_Q>
0

> <s_lp_Force_Field>
S-OPLS

> <r_lp_Energy>
18.5661

> <b_lp_Chiralities_Consistent>
1

> <s_lp_Variant>
lig_338-1

> <s_i_glide_gridfile>
glide-grid_5TBM-HIF2a

> <i_i_glide_lignum>
30

> <i_i_glide_rotatable_bonds>
4

> <r_i_docking_score>
-11.2533

> <r_i_glide_ligand_efficiency>
-0.41679

> <r_i_glide_ligand_efficiency_sa>
-1.25037

> <r_i_glide_ligand_efficiency_ln>
-2.61959

> <r_i_glide_gscore>
-11.2533

> <r_i_glide_lipo>
-4.40906

> <r_i_glide_hbond>
0

> <r_i_glide_metal>
-0

> <r_i_glide_rewards>
-3.28272

> <r_i_glide_evdw>
-53.7933

> <r_i_glide_ecoul>
-9.04551

> <r_i_glide_erotb>
0.484922

> <r_i_glide_esite>
0

> <r_i_glide_emodel>
-102.585

> <r_i_glide_energy>
-62.8388

> <r_i_glide_einternal>
5.51343e-05

> <i_i_glide_confnum>
1

> <i_i_glide_posenum>
1

> <r_i_glide_eff_state_penalty>
-0

> <r_i_glide_rmsd>
0.0623779

> <s_glide_core_constrain_type>
snapped_core_restrain
$$$$