lig_6694
                    3D
 Schrodinger Suite 2021-1.
 47 51  0  0  1  0            999 V2000
  -16.6939  -11.2993   38.3043 H   0  0  0  0  0  0
  -17.6446  -10.9248   38.6545 C   0  0  0  0  0  0
  -17.6733  -10.0298   39.6297 N   0  0  0  0  0  0
  -18.9889   -9.7841   39.8432 N   0  0  0  0  0  0
  -19.3803   -8.8517   40.8840 C   0  0  0  0  0  0
  -18.7217   -8.9832   41.7428 H   0  0  0  0  0  0
  -20.3924   -9.0889   41.2086 H   0  0  0  0  0  0
  -19.3053   -7.4085   40.4186 C   0  0  1  0  0  0
  -18.3201   -7.1186   40.0576 H   0  0  0  0  0  0
  -20.4844   -6.7584   39.7187 C   0  0  0  0  0  0
  -21.4028   -7.3371   39.6203 H   0  0  0  0  0  0
  -20.2688   -6.0784   38.9011 H   0  0  0  0  0  0
  -20.0908   -6.3150   41.1016 C   0  0  0  0  0  0
  -19.4996   -5.0714   41.2305 F   0  0  0  0  0  0
  -20.9448   -6.6478   42.1390 F   0  0  0  0  0  0
  -19.7964  -10.5095   38.9882 C   0  0  0  0  0  0
  -20.8726  -10.4342   39.0049 H   0  0  0  0  0  0
  -18.9538  -11.2484   38.2086 C   0  0  0  0  0  0
  -19.3130  -12.1789   37.1484 C   0  0  0  0  0  0
  -19.8861  -13.4200   37.1891 C   0  0  0  0  0  0
  -20.3290  -14.1965   38.3917 C   0  0  0  0  0  0
  -20.8108  -13.5449   39.1201 H   0  0  0  0  0  0
  -21.0431  -14.9752   38.1305 H   0  0  0  0  0  0
  -19.4854  -14.6791   38.8839 H   0  0  0  0  0  0
  -20.0346  -13.9371   35.9087 N   0  0  0  0  0  0
  -19.5944  -12.9968   35.0647 C   0  0  0  0  0  0
  -19.5028  -12.8928   33.6324 C   0  0  0  0  0  0
  -19.9079  -13.9357   32.7685 N   0  0  0  0  0  0
  -19.4715  -13.9493   31.3723 C   0  0  0  0  0  0
  -20.1610  -13.3458   30.7764 H   0  0  0  0  0  0
  -18.4735  -13.5225   31.2760 H   0  0  0  0  0  0
  -19.4391  -15.3960   30.8554 C   0  0  0  0  0  0
  -18.6979  -15.9901   31.3969 H   0  0  0  0  0  0
  -19.1581  -15.4229   29.8028 H   0  0  0  0  0  0
  -20.7311  -15.9711   31.0088 O   0  0  0  0  0  0
  -21.1045  -16.0533   32.3820 C   0  0  0  0  0  0
  -20.3916  -16.6850   32.9163 H   0  0  0  0  0  0
  -22.0759  -16.5403   32.4652 H   0  0  0  0  0  0
  -21.1692  -14.6409   32.9977 C   0  0  0  0  0  0
  -21.4039  -14.7328   34.0557 H   0  0  0  0  0  0
  -21.9864  -14.0772   32.5454 H   0  0  0  0  0  0
  -19.0064  -11.8261   33.0629 N   0  0  0  0  0  0
  -18.5401  -10.8010   33.8372 C   0  0  0  0  0  0
  -18.1308   -9.9607   33.2858 H   0  0  0  0  0  0
  -18.5757  -10.7931   35.2028 C   0  0  0  0  0  0
  -18.2157   -9.9765   35.8184 H   0  0  0  0  0  0
  -19.1104  -11.8875   35.8092 N   0  0  0  0  0  0
  1  2  1  0  0  0
  2 18  1  0  0  0
  2  3  2  0  0  0
  3  4  1  0  0  0
  4  5  1  0  0  0
  4 16  1  0  0  0
  5  6  1  0  0  0
  5  7  1  0  0  0
  5  8  1  0  0  0
  8 13  1  0  0  0
  8  9  1  0  0  0
  8 10  1  0  0  0
 10 11  1  0  0  0
 10 12  1  0  0  0
 10 13  1  0  0  0
 13 14  1  0  0  0
 13 15  1  0  0  0
 16 17  1  0  0  0
 16 18  2  0  0  0
 18 19  1  0  0  0
 19 47  1  0  0  0
 19 20  2  0  0  0
 20 21  1  0  0  0
 20 25  1  0  0  0
 21 22  1  0  0  0
 21 23  1  0  0  0
 21 24  1  0  0  0
 25 26  2  0  0  0
 26 47  1  0  0  0
 26 27  1  0  0  0
 27 28  1  0  0  0
 27 42  2  0  0  0
 28 39  1  0  0  0
 28 29  1  0  0  0
 29 30  1  0  0  0
 29 31  1  0  0  0
 29 32  1  0  0  0
 32 33  1  0  0  0
 32 34  1  0  0  0
 32 35  1  0  0  0
 35 36  1  0  0  0
 36 37  1  0  0  0
 36 38  1  0  0  0
 36 39  1  0  0  0
 39 40  1  0  0  0
 39 41  1  0  0  0
 42 43  1  0  0  0
 43 44  1  0  0  0
 43 45  2  0  0  0
 45 46  1  0  0  0
 45 47  1  0  0  0
M  END
> <s_m_source_file>
ligprep_pde10.smi

> <i_m_source_file_index>
28

> <i_lp_mmshare_version>
53161

> <i_f3d_flags>
0

> <s_epik_input>
RkMxKEYpW0NASF0oW0NIMl0xKVtDSDJdbjJuW2NIXWMoW2NIXTIpLWMoYyhuMylbQ0gzXSluKGMzNClbY0hdW2NIXW5jNE41W0NIMl1bQ0gyXU9bQ0gyXVtDSDJdNQ==

> <s_epik_cmdline>
J2VwaWtfcHl0aG9uJywgJy1waHQnLCAnMC4wJywgJy1waCcsICc3LjQnLCAnLXRuJywgJzgnLCAnLW1hJywgJzUwMCcsICctaW1hZScsICc8aW5maWxlLm1hZT4nLCAnLW9tYWUnLCAnPG91dGZpbGUubWFlPic=

> <r_lp_tautomer_probability>
1

> <r_epik_Ionization_Penalty>
0.0004

> <r_epik_Ionization_Penalty_Charging>
0.0003

> <r_epik_Ionization_Penalty_Neutral>
0

> <r_epik_State_Penalty>
-0

> <r_epik_Charging_Adjusted_Penalty>
0.000349532

> <i_epik_Tot_Q>
0

> <i_epik_Tot_abs_Q>
0

> <s_lp_Force_Field>
S-OPLS

> <r_lp_Energy>
23.9292

> <b_lp_Chiralities_Consistent>
1

> <s_lp_Variant>
lig_6694-1

> <s_i_glide_gridfile>
glide-grid_4BBX-PDE10

> <i_i_glide_lignum>
29

> <i_i_glide_rotatable_bonds>
4

> <r_i_docking_score>
-7.78196

> <r_i_glide_ligand_efficiency>
-0.288221

> <r_i_glide_ligand_efficiency_sa>
-0.864663

> <r_i_glide_ligand_efficiency_ln>
-1.81151

> <r_i_glide_gscore>
-7.78196

> <r_i_glide_lipo>
-3.42336

> <r_i_glide_hbond>
-0.285762

> <r_i_glide_metal>
-0

> <r_i_glide_rewards>
-2.28989

> <r_i_glide_evdw>
-36.8922

> <r_i_glide_ecoul>
-3.26748

> <r_i_glide_erotb>
0.551786

> <r_i_glide_esite>
0

> <r_i_glide_emodel>
-57.6639

> <r_i_glide_energy>
-40.1597

> <r_i_glide_einternal>
2.24361

> <i_i_glide_confnum>
26

> <i_i_glide_posenum>
17

> <r_i_glide_eff_state_penalty>
-0

> <r_i_glide_rmsd>
0.0676095

> <s_glide_core_constrain_type>
snapped_core_restrain
$$$$