lig_p38a_2j
                    3D
 Schrodinger Suite 2021-1.
 48 51  0  0  1  0            999 V2000
   20.7905    7.8037   30.8076 H   0  0  0  0  0  0
   21.6609    8.4350   30.8957 C   0  0  0  0  0  0
   22.8671    7.8265   30.9348 N   0  0  0  0  0  0
   23.9233    8.6270   31.0623 C   0  0  0  0  0  0
   25.1480    8.0035   31.2005 N   0  0  0  0  0  0
   25.1542    6.9890   31.2028 H   0  0  0  0  0  0
   26.4349    8.6937   31.3194 C   0  0  0  0  0  0
   26.5132    9.3697   30.4666 H   0  0  0  0  0  0
   26.5917    9.5113   32.6243 C   0  0  0  0  0  0
   27.4853   10.1314   32.5397 H   0  0  0  0  0  0
   25.7731   10.2102   32.7820 H   0  0  0  0  0  0
   26.7429    8.6058   33.8558 C   0  0  0  0  0  0
   26.8998    9.2131   34.7469 H   0  0  0  0  0  0
   25.8405    8.0169   34.0267 H   0  0  0  0  0  0
   27.8667    7.7539   33.6795 O   0  0  0  0  0  0
   27.7247    6.8782   32.5677 C   0  0  0  0  0  0
   28.5977    6.2270   32.5350 H   0  0  0  0  0  0
   26.8624    6.2319   32.7239 H   0  0  0  0  0  0
   27.5936    7.6878   31.2593 C   0  0  0  0  0  0
   27.4681    7.0234   30.4060 H   0  0  0  0  0  0
   28.5207    8.2337   31.0918 H   0  0  0  0  0  0
   23.8976    9.9559   31.1272 N   0  0  0  0  0  0
   22.7054   10.5854   31.1591 C   0  0  0  0  0  0
   21.5261    9.8301   31.0374 C   0  0  0  0  0  0
   20.2496   10.5241   31.1161 C   0  0  0  0  0  0
   19.3505    9.9388   30.9819 H   0  0  0  0  0  0
   20.1794   11.8479   31.3442 C   0  0  0  0  0  0
   18.8253   12.5233   31.4051 C   0  0  0  0  0  0
   18.9196   13.3919   32.0562 H   0  0  0  0  0  0
   18.1070   11.8516   31.8782 H   0  0  0  0  0  0
   18.2789   12.9617   30.0547 C   0  0  0  0  0  0
   19.1185   13.0234   28.9202 C   0  0  0  0  0  0
   20.1387   12.6729   28.9370 H   0  0  0  0  0  0
   18.6556   13.6107   27.7351 C   0  0  0  0  0  0
   19.3204   13.6855   26.8905 H   0  0  0  0  0  0
   17.3768   14.1772   27.6674 C   0  0  0  0  0  0
   16.9630   14.7949   26.5357 F   0  0  0  0  0  0
   16.5314   14.0870   28.7804 C   0  0  0  0  0  0
   15.5743   14.5576   28.7302 H   0  0  0  0  0  0
   16.9510   13.4248   29.9476 C   0  0  0  0  0  0
   16.0975   13.3247   30.9919 F   0  0  0  0  0  0
   21.4035   12.6494   31.5021 C   0  0  0  0  0  0
   21.3461   13.8571   31.7350 O   0  0  0  0  0  0
   22.5977   11.9986   31.3665 N   0  0  0  0  0  0
   23.8599   12.7486   31.4814 C   0  0  0  0  0  0
   24.4403   12.3767   32.3262 H   0  0  0  0  0  0
   24.4598   12.6117   30.5798 H   0  0  0  0  0  0
   23.7495   13.8234   31.6269 H   0  0  0  0  0  0
  1  2  1  0  0  0
  2 24  1  0  0  0
  2  3  2  0  0  0
  3  4  1  0  0  0
  4  5  1  0  0  0
  4 22  2  0  0  0
  5  6  1  0  0  0
  5  7  1  0  0  0
  7 19  1  0  0  0
  7  8  1  0  0  0
  7  9  1  0  0  0
  9 10  1  0  0  0
  9 11  1  0  0  0
  9 12  1  0  0  0
 12 13  1  0  0  0
 12 14  1  0  0  0
 12 15  1  0  0  0
 15 16  1  0  0  0
 16 17  1  0  0  0
 16 18  1  0  0  0
 16 19  1  0  0  0
 19 20  1  0  0  0
 19 21  1  0  0  0
 22 23  1  0  0  0
 23 44  1  0  0  0
 23 24  2  0  0  0
 24 25  1  0  0  0
 25 26  1  0  0  0
 25 27  2  0  0  0
 27 28  1  0  0  0
 27 42  1  0  0  0
 28 29  1  0  0  0
 28 30  1  0  0  0
 28 31  1  0  0  0
 31 40  1  0  0  0
 31 32  2  0  0  0
 32 33  1  0  0  0
 32 34  1  0  0  0
 34 35  1  0  0  0
 34 36  2  0  0  0
 36 37  1  0  0  0
 36 38  1  0  0  0
 38 39  1  0  0  0
 38 40  2  0  0  0
 40 41  1  0  0  0
 42 43  2  0  0  0
 42 44  1  0  0  0
 44 45  1  0  0  0
 45 46  1  0  0  0
 45 47  1  0  0  0
 45 48  1  0  0  0
M  END
> <s_m_source_file>
ligprep_p38.smi

> <i_m_source_file_index>
12

> <i_lp_mmshare_version>
53161

> <i_f3d_flags>
0

> <s_epik_input>
W0NIMl0xW0NIMl1PW0NIMl1bQ0gyXVtDSF0xW05IXWMobjIpbltjSF1jKGMyMylbY0hdYyhjKD1PKW4zW0NIM10pW0NIMl1jNFtjSF1bY0hdYyhGKVtjSF1jNEY=

> <s_epik_cmdline>
J2VwaWtfcHl0aG9uJywgJy1waHQnLCAnMC4wJywgJy1waCcsICc3LjQnLCAnLXRuJywgJzgnLCAnLW1hJywgJzUwMCcsICctaW1hZScsICc8aW5maWxlLm1hZT4nLCAnLW9tYWUnLCAnPG91dGZpbGUubWFlPic=

> <r_lp_tautomer_probability>
1

> <r_epik_Ionization_Penalty>
0

> <r_epik_Ionization_Penalty_Charging>
0

> <r_epik_Ionization_Penalty_Neutral>
0

> <r_epik_State_Penalty>
-0

> <r_epik_Charging_Adjusted_Penalty>
1.24485e-06

> <i_epik_Tot_Q>
0

> <i_epik_Tot_abs_Q>
0

> <s_epik_Chemistry_Notes>
This compound has an imine and may undergo hydrolysis.

> <s_lp_Force_Field>
S-OPLS

> <r_lp_Energy>
41.0767

> <b_lp_Chiralities_Consistent>
1

> <s_lp_Variant>
lig_p38a_2j-1

> <s_i_glide_gridfile>
glide-grid_3FLY-P38

> <i_i_glide_lignum>
13

> <i_i_glide_rotatable_bonds>
4

> <r_i_docking_score>
-8.42033

> <r_i_glide_ligand_efficiency>
-0.300726

> <r_i_glide_ligand_efficiency_sa>
-0.913182

> <r_i_glide_ligand_efficiency_ln>
-1.94366

> <r_i_glide_gscore>
-8.42033

> <r_i_glide_lipo>
-1.94355

> <r_i_glide_hbond>
-1.13167

> <r_i_glide_metal>
-0

> <r_i_glide_rewards>
-2.5066

> <r_i_glide_evdw>
-33.9387

> <r_i_glide_ecoul>
-10.9027

> <r_i_glide_erotb>
0.521441

> <r_i_glide_esite>
-0.0276249

> <r_i_glide_emodel>
-58.835

> <r_i_glide_energy>
-44.8414

> <r_i_glide_einternal>
7.3642

> <i_i_glide_confnum>
19

> <i_i_glide_posenum>
18

> <r_i_glide_eff_state_penalty>
-0

> <r_i_glide_rmsd>
0.105717

> <s_glide_core_constrain_type>
snapped_core_restrain
$$$$