lig_CHEMBL1083517
                    3D
 Schrodinger Suite 2021-1.
 52 55  0  0  1  0            999 V2000
   35.1316    7.0268   16.0169 H   0  0  0  0  0  0
   34.3661    7.0900   16.5840 O   0  0  0  0  0  0
   33.1891    7.3855   15.9816 C   0  0  0  0  0  0
   32.0338    6.9532   16.6362 C   0  0  0  0  0  0
   32.1129    6.3306   17.5171 H   0  0  0  0  0  0
   30.7669    7.3686   16.1995 C   0  0  0  0  0  0
   29.8837    7.0462   16.7302 H   0  0  0  0  0  0
   30.6616    8.2340   15.0979 C   0  0  0  0  0  0
   29.3048    8.7656   14.6895 C   0  0  2  0  0  0
   28.5601    8.3195   15.3511 H   0  0  0  0  0  0
   28.9803    8.3178   13.3477 N   0  0  0  0  0  0
   29.1666    7.3446   13.1374 H   0  0  0  0  0  0
   27.9456    8.9585   12.6602 C   0  0  0  0  0  0
   27.5404    8.4122   11.4295 C   0  0  0  0  0  0
   27.9942    7.5068   11.0556 H   0  0  0  0  0  0
   26.5509    9.0504   10.6650 C   0  0  0  0  0  0
   26.2639    8.6332    9.7111 H   0  0  0  0  0  0
   25.9632   10.2469   11.1219 C   0  0  0  0  0  0
   24.9831   10.9901   10.2376 C   0  0  0  0  0  0
   24.2711   10.1256    9.5190 F   0  0  0  0  0  0
   24.1522   11.7527   10.9490 F   0  0  0  0  0  0
   25.6726   11.7699    9.4065 F   0  0  0  0  0  0
   26.3429   10.7775   12.3714 C   0  0  0  0  0  0
   25.9043   11.7013   12.7181 H   0  0  0  0  0  0
   27.3337   10.1416   13.1454 C   0  0  0  0  0  0
   27.7879   10.7781   14.4511 C   0  0  1  0  0  0
   27.8050   11.8586   14.2935 H   0  0  0  0  0  0
   26.8792   10.4890   15.5206 O   0  0  0  0  0  0
   27.1849   11.1772   16.7322 C   0  0  1  0  0  0
   27.2655   12.2385   16.4868 H   0  0  0  0  0  0
   25.9998   11.0485   17.7261 C   0  0  0  0  0  0
   25.8284   12.0085   18.2167 H   0  0  0  0  0  0
   25.0863   10.8463   17.1649 H   0  0  0  0  0  0
   26.1566    9.9981   18.7646 N   0  3  0  0  0  0
   25.2466    9.5795   18.9059 H   0  0  0  0  0  0
   26.6248   10.4708   20.0841 C   0  0  0  0  0  0
   26.7000    9.6300   20.7741 H   0  0  0  0  0  0
   25.9230   11.1900   20.5079 H   0  0  0  0  0  0
   27.6038   10.9439   20.0223 H   0  0  0  0  0  0
   28.5524   10.6861   17.2481 C   0  0  0  0  0  0
   28.8390   11.2286   18.1478 H   0  0  0  0  0  0
   28.5071    9.6279   17.5070 H   0  0  0  0  0  0
   29.6325   10.8904   16.1849 C   0  0  0  0  0  0
   29.8147   11.9602   16.0719 H   0  0  0  0  0  0
   30.5722   10.4634   16.5311 H   0  0  0  0  0  0
   29.2092   10.3079   14.8197 C   0  0  1  0  0  0
   29.8937   10.7284   14.0807 H   0  0  0  0  0  0
   31.8243    8.6160   14.3928 C   0  0  0  0  0  0
   31.7468    9.2657   13.5332 H   0  0  0  0  0  0
   33.0916    8.1896   14.8316 C   0  0  0  0  0  0
   33.9695    8.5348   14.3144 H   0  0  0  0  0  0
   26.7689    9.2766   18.4102 H   0  0  0  0  0  0
  1  2  1  0  0  0
  2  3  1  0  0  0
  3 50  1  0  0  0
  3  4  2  0  0  0
  4  5  1  0  0  0
  4  6  1  0  0  0
  6  7  1  0  0  0
  6  8  2  0  0  0
  8  9  1  0  0  0
  8 48  1  0  0  0
  9 46  1  0  0  0
  9 10  1  0  0  0
  9 11  1  0  0  0
 11 12  1  0  0  0
 11 13  1  0  0  0
 13 25  1  0  0  0
 13 14  2  0  0  0
 14 15  1  0  0  0
 14 16  1  0  0  0
 16 17  1  0  0  0
 16 18  2  0  0  0
 18 19  1  0  0  0
 18 23  1  0  0  0
 19 20  1  0  0  0
 19 21  1  0  0  0
 19 22  1  0  0  0
 23 24  1  0  0  0
 23 25  2  0  0  0
 25 26  1  0  0  0
 26 46  1  0  0  0
 26 27  1  0  0  0
 26 28  1  0  0  0
 28 29  1  0  0  0
 29 30  1  0  0  0
 29 31  1  0  0  0
 29 40  1  0  0  0
 31 32  1  0  0  0
 31 33  1  0  0  0
 31 34  1  0  0  0
 34 35  1  0  0  0
 34 36  1  0  0  0
 34 52  1  0  0  0
 36 37  1  0  0  0
 36 38  1  0  0  0
 36 39  1  0  0  0
 40 41  1  0  0  0
 40 42  1  0  0  0
 40 43  1  0  0  0
 43 44  1  0  0  0
 43 45  1  0  0  0
 43 46  1  0  0  0
 46 47  1  0  0  0
 48 49  1  0  0  0
 48 50  2  0  0  0
 50 51  1  0  0  0
M  CHG  1  34   1
M  END
> <s_m_source_file>
ligprep_eg5.smi

> <i_m_source_file_index>
8

> <i_lp_mmshare_version>
53161

> <i_f3d_flags>
0

> <s_epik_input>
W09IXWMxW2NIXVtjSF1jKFtjSF1bY0hdMSlbQ0BIXShbTkhdMilbQ0BASF0oW0NASF0zYyhjMjQpW2NIXWMoQyhGKShGKUYpW2NIXVtjSF00KVtDSDJdW0NIMl1bQ0BASF0oTzMpW0NIMl1bTkhdW0NIM10=

> <s_epik_cmdline>
J2VwaWtfcHl0aG9uJywgJy1waHQnLCAnMC4wJywgJy1waCcsICc3LjQnLCAnLXRuJywgJzgnLCAnLW1hJywgJzUwMCcsICctaW1hZScsICc8aW5maWxlLm1hZT4nLCAnLW9tYWUnLCAnPG91dGZpbGUubWFlPic=

> <r_lp_tautomer_probability>
1

> <r_epik_Ionization_Penalty>
0.003

> <r_epik_Ionization_Penalty_Charging>
0.0023

> <r_epik_Ionization_Penalty_Neutral>
0.0006

> <r_epik_State_Penalty>
-0

> <r_epik_Charging_Adjusted_Penalty>
0.00234401

> <i_epik_Tot_Q>
1

> <i_epik_Tot_abs_Q>
1

> <s_lp_Force_Field>
S-OPLS

> <r_lp_Energy>
37.6632

> <b_lp_Chiralities_Consistent>
1

> <s_lp_Variant>
lig_CHEMBL1083517-1

> <s_i_glide_gridfile>
glide-grid_3L9H-EG5

> <i_i_glide_lignum>
8

> <i_i_glide_rotatable_bonds>
5

> <r_i_docking_score>
-9.27979

> <r_i_glide_ligand_efficiency>
-0.331421

> <r_i_glide_ligand_efficiency_sa>
-1.00639

> <r_i_glide_ligand_efficiency_ln>
-2.14205

> <r_i_glide_gscore>
-9.27979

> <r_i_glide_lipo>
-4.6735

> <r_i_glide_hbond>
-0.354977

> <r_i_glide_metal>
-0

> <r_i_glide_rewards>
-1.88175

> <r_i_glide_evdw>
-37.4267

> <r_i_glide_ecoul>
-7.52842

> <r_i_glide_erotb>
0.631041

> <r_i_glide_esite>
0

> <r_i_glide_emodel>
-46.5878

> <r_i_glide_energy>
-44.9552

> <r_i_glide_einternal>
0.0671736

> <i_i_glide_confnum>
2

> <i_i_glide_posenum>
1

> <r_i_glide_eff_state_penalty>
-0

> <r_i_glide_rmsd>
0.0863665

> <s_glide_core_constrain_type>
snapped_core_restrain
$$$$