lig_47
                    3D
 Schrodinger Suite 2021-1.
 49 52  0  0  1  0            999 V2000
   96.7346   45.9616  267.1045 H   0  0  0  0  0  0
   96.0144   46.7562  267.2350 C   0  0  0  0  0  0
   94.7541   46.5300  266.8136 N   0  0  0  0  0  0
   93.8493   47.5262  266.9577 C   0  0  0  0  0  0
   92.5230   47.3284  266.5262 C   0  0  0  0  0  0
   92.2449   46.3714  266.1131 H   0  0  0  0  0  0
   91.5575   48.3436  266.6632 C   0  0  0  0  0  0
   90.2132   48.1564  266.3101 N   0  0  0  0  0  0
   89.5308   48.6825  266.8500 H   0  0  0  0  0  0
   89.6489   47.3252  265.3249 C   0  0  0  0  0  0
   90.3738   46.9382  264.1758 C   0  0  0  0  0  0
   91.3894   47.2727  264.0138 H   0  0  0  0  0  0
   89.8746   46.1419  263.2140 N   0  0  0  0  0  0
   88.6077   45.7104  263.3145 C   0  0  0  0  0  0
   88.2544   45.0668  262.5214 H   0  0  0  0  0  0
   87.7791   46.0500  264.3913 C   0  0  0  0  0  0
   86.7731   45.6643  264.4510 H   0  0  0  0  0  0
   88.3012   46.8784  265.4027 C   0  0  0  0  0  0
   87.2351   47.2198  266.8014 S   0  0  0  0  0  0
   85.8406   47.1574  266.3364 O   0  0  0  0  0  0
   87.7008   48.4339  267.4789 O   0  0  0  0  0  0
   87.5381   45.8030  267.9271 C   0  0  0  0  0  0
   86.9167   45.9127  268.8139 H   0  0  0  0  0  0
   87.2853   44.8753  267.4110 H   0  0  0  0  0  0
   88.5901   45.7884  268.2031 H   0  0  0  0  0  0
   91.9382   49.5720  267.2312 C   0  0  0  0  0  0
   91.1998   50.3521  267.3359 H   0  0  0  0  0  0
   93.2589   49.8005  267.6743 C   0  0  0  0  0  0
   93.5791   51.0941  268.3009 C   0  0  0  0  0  0
   94.5991   51.9446  267.8095 C   0  0  0  0  0  0
   95.1759   51.6408  266.9500 H   0  0  0  0  0  0
   94.8564   53.1947  268.4136 C   0  0  0  0  0  0
   95.6251   53.8374  268.0130 H   0  0  0  0  0  0
   94.0834   53.6170  269.5154 C   0  0  0  0  0  0
   94.2664   55.0069  270.1270 C   0  0  0  0  0  0
   94.3737   55.7388  269.3274 H   0  0  0  0  0  0
   95.1736   55.0946  270.6951 H   0  0  0  0  0  0
   93.2360   55.4263  271.1801 C   0  0  0  0  0  0
   93.5744   56.3620  271.6138 H   0  0  0  0  0  0
   93.2010   54.7234  272.0123 H   0  0  0  0  0  0
   92.2275   55.5704  270.7933 H   0  0  0  0  0  0
   93.1048   52.7442  270.0340 C   0  0  0  0  0  0
   92.4883   53.0137  270.8767 H   0  0  0  0  0  0
   92.8489   51.5042  269.4319 C   0  0  0  0  0  0
   92.0778   50.8667  269.8374 H   0  0  0  0  0  0
   94.2232   48.7721  267.5568 C   0  0  0  0  0  0
   95.4861   48.9596  268.0164 N   0  0  0  0  0  0
   96.3797   47.9690  267.8439 C   0  0  0  0  0  0
   97.3899   48.1486  268.1825 H   0  0  0  0  0  0
  1  2  1  0  0  0
  2 48  1  0  0  0
  2  3  2  0  0  0
  3  4  1  0  0  0
  4 46  1  0  0  0
  4  5  2  0  0  0
  5  6  1  0  0  0
  5  7  1  0  0  0
  7  8  1  0  0  0
  7 26  2  0  0  0
  8  9  1  0  0  0
  8 10  1  0  0  0
 10 18  1  0  0  0
 10 11  2  0  0  0
 11 12  1  0  0  0
 11 13  1  0  0  0
 13 14  2  0  0  0
 14 15  1  0  0  0
 14 16  1  0  0  0
 16 17  1  0  0  0
 16 18  2  0  0  0
 18 19  1  0  0  0
 19 20  2  0  0  0
 19 21  2  0  0  0
 19 22  1  0  0  0
 22 23  1  0  0  0
 22 24  1  0  0  0
 22 25  1  0  0  0
 26 27  1  0  0  0
 26 28  1  0  0  0
 28 29  1  0  0  0
 28 46  2  0  0  0
 29 44  1  0  0  0
 29 30  2  0  0  0
 30 31  1  0  0  0
 30 32  1  0  0  0
 32 33  1  0  0  0
 32 34  2  0  0  0
 34 35  1  0  0  0
 34 42  1  0  0  0
 35 36  1  0  0  0
 35 37  1  0  0  0
 35 38  1  0  0  0
 38 39  1  0  0  0
 38 40  1  0  0  0
 38 41  1  0  0  0
 42 43  1  0  0  0
 42 44  2  0  0  0
 44 45  1  0  0  0
 46 47  1  0  0  0
 47 48  2  0  0  0
 48 49  1  0  0  0
M  END
> <s_m_source_file>
ligprep_pfkfb3.smi

> <i_m_source_file_index>
21

> <i_lp_mmshare_version>
53161

> <i_f3d_flags>
0

> <s_epik_input>
W0NIM11bQ0gyXWMoW2NIXVtjSF0xKVtjSF1bY0hdYzEtYyhjKGMyMyluW2NIXVtjSF1uMilbY0hdYyhbY0hdMylbTkhdYzRbY0hdbltjSF1bY0hdYzRTKD1PKSg9TylbQ0gzXQ==

> <s_epik_cmdline>
J2VwaWtfcHl0aG9uJywgJy1waHQnLCAnMC4wJywgJy1waCcsICc3LjQnLCAnLXRuJywgJzgnLCAnLW1hJywgJzUwMCcsICctaW1hZScsICc8aW5maWxlLm1hZT4nLCAnLW9tYWUnLCAnPG91dGZpbGUubWFlPic=

> <r_lp_tautomer_probability>
1

> <r_epik_Ionization_Penalty>
0

> <r_epik_Ionization_Penalty_Charging>
0

> <r_epik_Ionization_Penalty_Neutral>
0

> <r_epik_State_Penalty>
-0

> <r_epik_Charging_Adjusted_Penalty>
0

> <i_epik_Tot_Q>
0

> <i_epik_Tot_abs_Q>
0

> <s_lp_Force_Field>
S-OPLS

> <r_lp_Energy>
47.6537

> <b_lp_Chiralities_Consistent>
1

> <s_lp_Variant>
lig_47-1

> <s_i_glide_gridfile>
glide-grid_6HVI-PFKFB3

> <i_i_glide_lignum>
21

> <i_i_glide_rotatable_bonds>
5

> <r_i_docking_score>
-9.83579

> <r_i_glide_ligand_efficiency>
-0.339165

> <r_i_glide_ligand_efficiency_sa>
-1.04202

> <r_i_glide_ligand_efficiency_ln>
-2.25215

> <r_i_glide_gscore>
-9.83579

> <r_i_glide_lipo>
-5.46873

> <r_i_glide_hbond>
-0.32

> <r_i_glide_metal>
-0

> <r_i_glide_rewards>
-1.12303

> <r_i_glide_evdw>
-52.64

> <r_i_glide_ecoul>
-5.44489

> <r_i_glide_erotb>
0.600321

> <r_i_glide_esite>
-0.075613

> <r_i_glide_emodel>
-76.7588

> <r_i_glide_energy>
-58.0849

> <r_i_glide_einternal>
3.02368

> <i_i_glide_confnum>
11

> <i_i_glide_posenum>
1

> <r_i_glide_eff_state_penalty>
-0

> <r_i_glide_rmsd>
0.0815097

> <s_glide_core_constrain_type>
snapped_core_restrain
$$$$