lig_CAT-17i
                    3D
 Schrodinger Suite 2021-1.
 44 47  0  0  1  0            999 V2000
   27.1391    9.1618   21.4283 H   0  0  0  0  0  0
   27.7413   10.0150   21.1554 C   0  0  0  0  0  0
   28.9936   10.0375   21.6649 N   0  0  0  0  0  0
   29.7840   11.0910   21.3613 C   0  0  0  0  0  0
   30.7759   11.0865   21.7855 H   0  0  0  0  0  0
   29.3542   12.1479   20.5408 C   0  0  0  0  0  0
   30.2321   13.3464   20.2495 C   0  0  0  0  0  0
   30.8402   13.5897   21.1241 H   0  0  0  0  0  0
   29.6402   14.2236   20.0113 H   0  0  0  0  0  0
   30.8954   13.1437   19.4042 H   0  0  0  0  0  0
   28.0369   12.1210   20.0424 C   0  0  0  0  0  0
   27.6675   12.9428   19.4426 H   0  0  0  0  0  0
   27.1982   11.0388   20.3491 C   0  0  0  0  0  0
   25.7986   11.0296   19.8877 C   0  0  0  0  0  0
   24.7382   10.8936   20.8026 C   0  0  0  0  0  0
   24.9765   10.7596   21.8463 H   0  0  0  0  0  0
   23.3827   10.9933   20.3999 C   0  0  0  0  0  0
   22.2467   10.9393   21.4520 C   0  0  2  0  0  0
   20.8454   10.8209   20.8484 C   0  0  0  0  0  0
   20.7156    9.8901   20.2905 H   0  0  0  0  0  0
   19.5923   11.3275   21.5343 C   0  0  0  0  0  0
   18.6985   10.7148   21.4513 H   0  0  0  0  0  0
   19.6830   11.8763   22.4765 H   0  0  0  0  0  0
   20.0863   12.0130   20.2888 C   0  0  0  0  0  0
   20.5329   12.9998   20.3894 H   0  0  0  0  0  0
   19.5260   11.8582   19.3669 H   0  0  0  0  0  0
   22.4237   12.0714   22.4895 C   0  0  0  0  0  0
   22.3840   13.2722   22.2262 O   0  0  0  0  0  0
   22.6303   11.5374   23.6842 N   0  0  0  0  0  0
   22.8412   12.2306   24.9488 C   0  0  0  0  0  0
   23.7936   11.9440   25.4025 H   0  0  0  0  0  0
   22.8660   13.3168   24.8135 H   0  0  0  0  0  0
   22.0453   12.0023   25.6640 H   0  0  0  0  0  0
   22.6161   10.1681   23.5405 C   0  0  0  0  0  0
   22.8102    9.3680   24.6532 N   0  0  0  0  0  0
   22.8721    8.3600   24.5964 H   0  0  0  0  0  0
   22.4330    9.7845   22.3254 N   0  0  0  0  0  0
   23.1069   11.1746   19.0254 C   0  0  0  0  0  0
   22.0960   11.2493   18.6571 H   0  0  0  0  0  0
   24.1527   11.2845   18.0900 C   0  0  0  0  0  0
   23.9306   11.4307   17.0474 H   0  0  0  0  0  0
   25.4939   11.2283   18.5238 C   0  0  0  0  0  0
   26.2837   11.3401   17.8018 H   0  0  0  0  0  0
   22.9767    9.7012   25.5996 H   0  0  0  0  0  0
  1  2  1  0  0  0
  2 13  1  0  0  0
  2  3  2  0  0  0
  3  4  1  0  0  0
  4  5  1  0  0  0
  4  6  2  0  0  0
  6  7  1  0  0  0
  6 11  1  0  0  0
  7  8  1  0  0  0
  7  9  1  0  0  0
  7 10  1  0  0  0
 11 12  1  0  0  0
 11 13  2  0  0  0
 13 14  1  0  0  0
 14 42  1  0  0  0
 14 15  2  0  0  0
 15 16  1  0  0  0
 15 17  1  0  0  0
 17 38  2  0  0  0
 17 18  1  0  0  0
 18 37  1  0  0  0
 18 27  1  0  0  0
 18 19  1  0  0  0
 19 24  1  0  0  0
 19 20  1  0  0  0
 19 21  1  0  0  0
 21 22  1  0  0  0
 21 23  1  0  0  0
 21 24  1  0  0  0
 24 25  1  0  0  0
 24 26  1  0  0  0
 27 28  2  0  0  0
 27 29  1  0  0  0
 29 30  1  0  0  0
 29 34  1  0  0  0
 30 31  1  0  0  0
 30 32  1  0  0  0
 30 33  1  0  0  0
 34 35  1  0  0  0
 34 37  2  0  0  0
 35 36  1  0  0  0
 35 44  1  0  0  0
 38 39  1  0  0  0
 38 40  1  0  0  0
 40 41  1  0  0  0
 40 42  2  0  0  0
 42 43  1  0  0  0
M  END
> <s_m_source_file>
ligprep_bace.smi

> <i_m_source_file_index>
23

> <i_lp_mmshare_version>
53161

> <i_f3d_flags>
0

> <s_epik_input>
W0NIM11jMVtjSF1uW2NIXWMoW2NIXTEpLWMyW2NIXWMoW2NIXVtjSF1bY0hdMilbQ0BdMyhbQ0hdNFtDSDJdW0NIMl00KUMoPU8pTihbQ0gzXSlDKD1OMylbTkgyXQ==

> <s_epik_cmdline>
J2VwaWtfcHl0aG9uJywgJy1waHQnLCAnMC4wJywgJy1waCcsICc3LjQnLCAnLXRuJywgJzgnLCAnLW1hJywgJzUwMCcsICctaW1hZScsICc8aW5maWxlLm1hZT4nLCAnLW9tYWUnLCAnPG91dGZpbGUubWFlPic=

> <r_lp_tautomer_probability>
1

> <r_epik_Ionization_Penalty>
1.4091

> <r_epik_Ionization_Penalty_Charging>
0

> <r_epik_Ionization_Penalty_Neutral>
1.4091

> <r_epik_State_Penalty>
-0

> <r_epik_Charging_Adjusted_Penalty>
0

> <i_epik_Tot_Q>
0

> <i_epik_Tot_abs_Q>
0

> <s_epik_Chemistry_Notes>
This compound has an imine and may undergo hydrolysis.

> <s_lp_Force_Field>
S-OPLS

> <r_lp_Energy>
29.4342

> <b_lp_Chiralities_Consistent>
1

> <s_lp_Variant>
lig_CAT-17i-1

> <s_i_glide_gridfile>
glide-grid_4DJW-BACE

> <i_i_glide_lignum>
23

> <i_i_glide_rotatable_bonds>
3

> <r_i_docking_score>
-6.28093

> <r_i_glide_ligand_efficiency>
-0.261706

> <r_i_glide_ligand_efficiency_sa>
-0.754889

> <r_i_glide_ligand_efficiency_ln>
-1.50332

> <r_i_glide_gscore>
-6.28093

> <r_i_glide_lipo>
-2.23375

> <r_i_glide_hbond>
-0.383614

> <r_i_glide_metal>
-0

> <r_i_glide_rewards>
-1.47709

> <r_i_glide_evdw>
-35.434

> <r_i_glide_ecoul>
-5.6394

> <r_i_glide_erotb>
0.545708

> <r_i_glide_esite>
-0.114569

> <r_i_glide_emodel>
-50.664

> <r_i_glide_energy>
-41.0734

> <r_i_glide_einternal>
5.07721

> <i_i_glide_confnum>
2

> <i_i_glide_posenum>
4

> <r_i_glide_eff_state_penalty>
-0

> <r_i_glide_rmsd>
0.082085

> <s_glide_core_constrain_type>
snapped_core_restrain
$$$$