lig_32
                    3D
 Schrodinger Suite 2021-1.
 41 43  0  0  1  0            999 V2000
   67.8748  -36.3783   28.5142 H   0  0  0  0  0  0
   68.5933  -35.6903   28.0898 C   0  0  0  0  0  0
   69.9137  -35.6708   28.5768 C   0  0  0  0  0  0
   70.8476  -34.7765   28.0147 C   0  0  0  0  0  0
   70.4502  -33.9209   26.9687 C   0  0  0  0  0  0
   69.1240  -33.9293   26.4469 C   0  0  0  0  0  0
   68.2087  -34.8315   27.0400 C   0  0  0  0  0  0
   67.1885  -34.8616   26.6763 H   0  0  0  0  0  0
   69.0430  -32.9520   25.3909 C   0  0  0  0  0  0
   70.2933  -32.3734   25.2825 C   0  0  0  0  0  0
   71.1152  -32.9566   26.2406 N   0  0  0  0  0  0
   72.0719  -32.6546   26.3414 H   0  0  0  0  0  0
   70.8825  -31.3096   24.4271 C   0  0  0  0  0  0
   70.2059  -30.7657   23.5260 O   0  0  0  0  0  0
   72.0668  -30.9652   24.6368 O   0  5  0  0  0  0
   67.8294  -32.6053   24.5883 C   0  0  0  0  0  0
   67.0929  -33.4138   24.6265 H   0  0  0  0  0  0
   68.0988  -32.5163   23.5362 H   0  0  0  0  0  0
   67.1852  -31.2907   25.0545 C   0  0  0  0  0  0
   66.4515  -30.9684   24.3175 H   0  0  0  0  0  0
   67.9512  -30.5182   25.0798 H   0  0  0  0  0  0
   66.5158  -31.3728   26.4348 C   0  0  0  0  0  0
   66.2440  -30.3644   26.7629 H   0  0  0  0  0  0
   67.1879  -31.8135   27.1705 H   0  0  0  0  0  0
   65.3433  -32.1665   26.3272 O   0  0  0  0  0  0
   64.4868  -32.2084   27.4039 C   0  0  0  0  0  0
   63.1969  -32.7185   27.1601 C   0  0  0  0  0  0
   62.2674  -32.8525   28.2101 C   0  0  0  0  0  0
   62.6240  -32.4678   29.5218 C   0  0  0  0  0  0
   63.9074  -31.9355   29.7688 C   0  0  0  0  0  0
   64.8342  -31.8067   28.7193 C   0  0  0  0  0  0
   65.8121  -31.4167   28.9447 H   0  0  0  0  0  0
   64.1820  -31.6410   30.7671 H   0  0  0  0  0  0
   61.6410  -32.6432   30.6614 C   0  0  0  0  0  0
   61.7788  -31.8597   31.4056 H   0  0  0  0  0  0
   61.7938  -33.6101   31.1396 H   0  0  0  0  0  0
   60.6106  -32.6067   30.3057 H   0  0  0  0  0  0
   61.2824  -33.2615   28.0069 H   0  0  0  0  0  0
   62.9233  -33.0169   26.1568 H   0  0  0  0  0  0
   71.8599  -34.7460   28.3863 H   0  0  0  0  0  0
   70.2149  -36.3404   29.3723 H   0  0  0  0  0  0
  1  2  1  0  0  0
  2  7  1  0  0  0
  2  3  2  0  0  0
  3  4  1  0  0  0
  3 41  1  0  0  0
  4  5  2  0  0  0
  4 40  1  0  0  0
  5 11  1  0  0  0
  5  6  1  0  0  0
  6  7  2  0  0  0
  6  9  1  0  0  0
  7  8  1  0  0  0
  9 10  2  0  0  0
  9 16  1  0  0  0
 10 11  1  0  0  0
 10 13  1  0  0  0
 11 12  1  0  0  0
 13 14  2  0  0  0
 13 15  1  0  0  0
 16 17  1  0  0  0
 16 18  1  0  0  0
 16 19  1  0  0  0
 19 20  1  0  0  0
 19 21  1  0  0  0
 19 22  1  0  0  0
 22 23  1  0  0  0
 22 24  1  0  0  0
 22 25  1  0  0  0
 25 26  1  0  0  0
 26 31  1  0  0  0
 26 27  2  0  0  0
 27 28  1  0  0  0
 27 39  1  0  0  0
 28 29  2  0  0  0
 28 38  1  0  0  0
 29 30  1  0  0  0
 29 34  1  0  0  0
 30 31  2  0  0  0
 30 33  1  0  0  0
 31 32  1  0  0  0
 34 35  1  0  0  0
 34 36  1  0  0  0
 34 37  1  0  0  0
M  CHG  1  15  -1
M  END
> <s_m_source_file>
ligprep_mcl1.smi

> <i_m_source_file_index>
8

> <i_lp_mmshare_version>
53161

> <i_f3d_flags>
0

> <s_epik_input>
W2NIXTFbY0hdW2NIXVtjSF1jKGMxMiljKGMoW25IXTIpQyg9TylbT0hdKVtDSDJdW0NIMl1bQ0gyXU9jM1tjSF1bY0hdYyhbQ0gzXSlbY0hdW2NIXTM=

> <s_epik_cmdline>
J2VwaWtfcHl0aG9uJywgJy1waHQnLCAnMC4wJywgJy1waCcsICc3LjQnLCAnLXRuJywgJzgnLCAnLW1hJywgJzUwMCcsICctaW1hZScsICc8aW5maWxlLm1hZT4nLCAnLW9tYWUnLCAnPG91dGZpbGUubWFlPic=

> <r_lp_tautomer_probability>
1

> <r_epik_Ionization_Penalty>
0.0005

> <r_epik_Ionization_Penalty_Charging>
0.0005

> <r_epik_Ionization_Penalty_Neutral>
0

> <r_epik_State_Penalty>
-0

> <r_epik_Charging_Adjusted_Penalty>
0.000454155

> <i_epik_Tot_Q>
-1

> <i_epik_Tot_abs_Q>
1

> <s_lp_Force_Field>
S-OPLS

> <r_lp_Energy>
32.6067

> <b_lp_Chiralities_Consistent>
1

> <s_lp_Variant>
lig_32-1

> <s_i_glide_gridfile>
glide-grid_4HW3-MCL1

> <i_i_glide_lignum>
8

> <i_i_glide_rotatable_bonds>
6

> <r_i_docking_score>
-8.41288

> <r_i_glide_ligand_efficiency>
-0.365778

> <r_i_glide_ligand_efficiency_sa>
-1.04022

> <r_i_glide_ligand_efficiency_ln>
-2.03431

> <r_i_glide_gscore>
-8.41288

> <r_i_glide_lipo>
-4.87743

> <r_i_glide_hbond>
-0.291954

> <r_i_glide_metal>
-0

> <r_i_glide_rewards>
-2.01101

> <r_i_glide_evdw>
-38.4129

> <r_i_glide_ecoul>
-2.97386

> <r_i_glide_erotb>
1.16745

> <r_i_glide_esite>
-0.0332117

> <r_i_glide_emodel>
-69.803

> <r_i_glide_energy>
-41.3868

> <r_i_glide_einternal>
0.772031

> <i_i_glide_confnum>
8

> <i_i_glide_posenum>
28

> <r_i_glide_eff_state_penalty>
-0

> <r_i_glide_rmsd>
0.0832637

> <s_glide_core_constrain_type>
snapped_core_restrain
$$$$