lig_CHEMBL1086410
                    3D
 Schrodinger Suite 2021-1.
 60 63  0  0  1  0            999 V2000
   34.3129    7.0373   16.2509 H   0  0  0  0  0  0
   33.3271    7.3699   15.9640 C   0  0  0  0  0  0
   32.1988    6.9367   16.6846 C   0  0  0  0  0  0
   32.3228    6.2644   17.5204 H   0  0  0  0  0  0
   30.9107    7.3686   16.3186 C   0  0  0  0  0  0
   30.0486    7.0332   16.8774 H   0  0  0  0  0  0
   30.7506    8.2398   15.2254 C   0  0  0  0  0  0
   29.3710    8.7309   14.8353 C   0  0  2  0  0  0
   28.6505    8.2860   15.5229 H   0  0  0  0  0  0
   29.0306    8.2366   13.5077 N   0  0  0  0  0  0
   29.1761    7.2475   13.3428 H   0  0  0  0  0  0
   28.0293    8.8871   12.7785 C   0  0  0  0  0  0
   27.6576    8.3644   11.5194 C   0  0  0  0  0  0
   28.1243    7.4670   11.1428 H   0  0  0  0  0  0
   26.6945    9.0174   10.7323 C   0  0  0  0  0  0
   26.4592    8.5970    9.7666 H   0  0  0  0  0  0
   26.0624   10.1997   11.1882 C   0  0  0  0  0  0
   25.0471   10.9415   10.3022 C   0  0  0  0  0  0
   25.8113   11.8100    9.3017 C   0  0  0  0  0  0
   25.1672   12.3542    8.6157 H   0  0  0  0  0  0
   26.4985   11.2069    8.7186 H   0  0  0  0  0  0
   26.3676   12.5706    9.8366 H   0  0  0  0  0  0
   24.1338   11.8686   11.1080 C   0  0  0  0  0  0
   24.7488   12.5814   11.6186 H   0  0  0  0  0  0
   23.5743   11.3701   11.8857 H   0  0  0  0  0  0
   23.4292   12.4122   10.4771 H   0  0  0  0  0  0
   24.1275    9.9618    9.5837 C   0  0  0  0  0  0
   23.2761   10.4346    9.1186 H   0  0  0  0  0  0
   23.6813    9.3701   10.3546 H   0  0  0  0  0  0
   24.6207    9.3169    8.8578 H   0  0  0  0  0  0
   26.4362   10.7066   12.4550 C   0  0  0  0  0  0
   26.0147   11.6128   12.8582 H   0  0  0  0  0  0
   27.4180   10.0776   13.2324 C   0  0  0  0  0  0
   27.8457   10.7341   14.5316 C   0  0  1  0  0  0
   27.8665   11.8120   14.3515 H   0  0  0  0  0  0
   26.9165   10.4627   15.5830 O   0  0  0  0  0  0
   27.1955   11.1859   16.7778 C   0  0  1  0  0  0
   27.2642   12.2435   16.5127 H   0  0  0  0  0  0
   25.9888   11.0504   17.7387 C   0  0  0  0  0  0
   25.7929   12.0039   18.2320 H   0  0  0  0  0  0
   25.0920   10.8419   17.1545 H   0  0  0  0  0  0
   26.1392    9.9986   18.7713 N   0  3  0  0  0  0
   25.2306    9.5740   18.9001 H   0  0  0  0  0  0
   26.5908   10.4717   20.0965 C   0  0  0  0  0  0
   26.6752    9.6317   20.7855 H   0  0  0  0  0  0
   25.8782   11.1811   20.5182 H   0  0  0  0  0  0
   27.5647   10.9550   20.0474 H   0  0  0  0  0  0
   28.5615   10.7244   17.3312 C   0  0  0  0  0  0
   28.8304   11.2961   18.2182 H   0  0  0  0  0  0
   28.5203    9.6747   17.6211 H   0  0  0  0  0  0
   29.6607   10.8988   16.2811 C   0  0  0  0  0  0
   29.8371   11.9656   16.1370 H   0  0  0  0  0  0
   30.5982   10.4863   16.6540 H   0  0  0  0  0  0
   29.2585   10.2756   14.9277 C   0  0  1  0  0  0
   29.9410   10.6842   14.1818 H   0  0  0  0  0  0
   31.8807    8.6517   14.4876 C   0  0  0  0  0  0
   31.7626    9.3008   13.6328 H   0  0  0  0  0  0
   33.1654    8.2204   14.8568 C   0  0  0  0  0  0
   34.0202    8.5519   14.2922 H   0  0  0  0  0  0
   26.7587    9.2811   18.4191 H   0  0  0  0  0  0
  1  2  1  0  0  0
  2 58  1  0  0  0
  2  3  2  0  0  0
  3  4  1  0  0  0
  3  5  1  0  0  0
  5  6  1  0  0  0
  5  7  2  0  0  0
  7  8  1  0  0  0
  7 56  1  0  0  0
  8 54  1  0  0  0
  8  9  1  0  0  0
  8 10  1  0  0  0
 10 11  1  0  0  0
 10 12  1  0  0  0
 12 33  1  0  0  0
 12 13  2  0  0  0
 13 14  1  0  0  0
 13 15  1  0  0  0
 15 16  1  0  0  0
 15 17  2  0  0  0
 17 18  1  0  0  0
 17 31  1  0  0  0
 18 19  1  0  0  0
 18 23  1  0  0  0
 18 27  1  0  0  0
 19 20  1  0  0  0
 19 21  1  0  0  0
 19 22  1  0  0  0
 23 24  1  0  0  0
 23 25  1  0  0  0
 23 26  1  0  0  0
 27 28  1  0  0  0
 27 29  1  0  0  0
 27 30  1  0  0  0
 31 32  1  0  0  0
 31 33  2  0  0  0
 33 34  1  0  0  0
 34 54  1  0  0  0
 34 35  1  0  0  0
 34 36  1  0  0  0
 36 37  1  0  0  0
 37 38  1  0  0  0
 37 39  1  0  0  0
 37 48  1  0  0  0
 39 40  1  0  0  0
 39 41  1  0  0  0
 39 42  1  0  0  0
 42 43  1  0  0  0
 42 44  1  0  0  0
 42 60  1  0  0  0
 44 45  1  0  0  0
 44 46  1  0  0  0
 44 47  1  0  0  0
 48 49  1  0  0  0
 48 50  1  0  0  0
 48 51  1  0  0  0
 51 52  1  0  0  0
 51 53  1  0  0  0
 51 54  1  0  0  0
 54 55  1  0  0  0
 56 57  1  0  0  0
 56 58  2  0  0  0
 58 59  1  0  0  0
M  CHG  1  42   1
M  END
> <s_m_source_file>
ligprep_eg5.smi

> <i_m_source_file_index>
21

> <i_lp_mmshare_version>
53161

> <i_f3d_flags>
0

> <s_epik_input>
W2NIXTFbY0hdW2NIXVtjSF1bY0hdYzFbQ0BIXShbTkhdMilbQ0BASF0oW0NASF0zYyhjMjQpW2NIXWMoW2NIXVtjSF00KUMoW0NIM10pKFtDSDNdKVtDSDNdKVtDSDJdW0NIMl1bQ0BASF0oTzMpW0NIMl1bTkhdW0NIM10=

> <s_epik_cmdline>
J2VwaWtfcHl0aG9uJywgJy1waHQnLCAnMC4wJywgJy1waCcsICc3LjQnLCAnLXRuJywgJzgnLCAnLW1hJywgJzUwMCcsICctaW1hZScsICc8aW5maWxlLm1hZT4nLCAnLW9tYWUnLCAnPG91dGZpbGUubWFlPic=

> <r_lp_tautomer_probability>
1

> <r_epik_Ionization_Penalty>
0.0027

> <r_epik_Ionization_Penalty_Charging>
0.0023

> <r_epik_Ionization_Penalty_Neutral>
0.0004

> <r_epik_State_Penalty>
-0

> <r_epik_Charging_Adjusted_Penalty>
0.00233856

> <i_epik_Tot_Q>
1

> <i_epik_Tot_abs_Q>
1

> <s_lp_Force_Field>
S-OPLS

> <r_lp_Energy>
42.9625

> <b_lp_Chiralities_Consistent>
1

> <s_lp_Variant>
lig_CHEMBL1086410-1

> <s_i_glide_gridfile>
glide-grid_3L9H-EG5

> <i_i_glide_lignum>
22

> <i_i_glide_rotatable_bonds>
4

> <r_i_docking_score>
-8.4787

> <r_i_glide_ligand_efficiency>
-0.314026

> <r_i_glide_ligand_efficiency_sa>
-0.942078

> <r_i_glide_ligand_efficiency_ln>
-1.9737

> <r_i_glide_gscore>
-8.4787

> <r_i_glide_lipo>
-5.35351

> <r_i_glide_hbond>
-0.19676

> <r_i_glide_metal>
-0

> <r_i_glide_rewards>
-1.12087

> <r_i_glide_evdw>
-38.9707

> <r_i_glide_ecoul>
-2.89956

> <r_i_glide_erotb>
0.575906

> <r_i_glide_esite>
0

> <r_i_glide_emodel>
-51.238

> <r_i_glide_energy>
-41.8702

> <r_i_glide_einternal>
0.618341

> <i_i_glide_confnum>
4

> <i_i_glide_posenum>
3

> <r_i_glide_eff_state_penalty>
-0

> <r_i_glide_rmsd>
0.107306

> <s_glide_core_constrain_type>
snapped_core_restrain
$$$$