lig_5b
                    3D
 Schrodinger Suite 2021-1.
 37 39  0  0  1  0            999 V2000
  -39.9551   -9.3584    5.3657 H   0  0  0  0  0  0
  -39.7556   -9.4741    6.2847 O   0  0  0  0  0  0
  -38.8136  -10.5149    6.4216 C   0  0  0  0  0  0
  -38.7817  -10.9203    7.8864 C   0  0  0  0  0  0
  -39.3074  -12.1513    8.3301 C   0  0  0  0  0  0
  -39.7226  -12.8715    7.6452 H   0  0  0  0  0  0
  -39.3318  -12.4573    9.6998 C   0  0  0  0  0  0
  -39.7555  -13.3992   10.0107 H   0  0  0  0  0  0
  -38.8353  -11.5389   10.6468 C   0  0  0  0  0  0
  -38.8989  -11.8524   12.0952 C   0  0  0  0  0  0
  -39.6077  -12.8601   12.5201 N   0  0  0  0  0  0
  -39.6512  -13.1595   13.8867 C   0  0  0  0  0  0
  -40.4424  -14.2408   14.3274 C   0  0  0  0  0  0
  -40.9854  -14.8433   13.6147 H   0  0  0  0  0  0
  -40.5487  -14.5276   15.7012 C   0  0  0  0  0  0
  -41.1688  -15.3437   16.0437 H   0  0  0  0  0  0
  -39.8627  -13.7293   16.6359 C   0  0  0  0  0  0
  -39.9568  -13.9436   17.6904 H   0  0  0  0  0  0
  -39.0639  -12.6518   16.2014 C   0  0  0  0  0  0
  -38.4387  -11.8699   17.1055 F   0  0  0  0  0  0
  -38.9433  -12.3736   14.8260 C   0  0  0  0  0  0
  -38.0813  -11.2599   14.3023 C   0  0  0  0  0  0
  -37.3377  -10.5794   15.0072 O   0  0  0  0  0  0
  -38.1584  -11.0664   12.9828 N   0  0  0  0  0  0
  -37.5599  -10.3424   12.6019 H   0  0  0  0  0  0
  -38.2825  -10.3161   10.2062 C   0  0  0  0  0  0
  -37.8851   -9.5887   10.8990 H   0  0  0  0  0  0
  -38.2686  -10.0105    8.8374 C   0  0  0  0  0  0
  -37.8792   -9.0518    8.5284 H   0  0  0  0  0  0
  -39.2639  -11.6154    5.4500 C   0  0  0  0  0  0
  -38.5684  -12.4557    5.4709 H   0  0  0  0  0  0
  -39.2868  -11.2486    4.4247 H   0  0  0  0  0  0
  -40.2660  -11.9806    5.6742 H   0  0  0  0  0  0
  -37.4138  -10.0629    5.9716 C   0  0  0  0  0  0
  -36.6701  -10.8213    6.2192 H   0  0  0  0  0  0
  -37.3600   -9.9261    4.8923 H   0  0  0  0  0  0
  -37.1028   -9.1280    6.4307 H   0  0  0  0  0  0
  1  2  1  0  0  0
  2  3  1  0  0  0
  3  4  1  0  0  0
  3 30  1  0  0  0
  3 34  1  0  0  0
  4 28  1  0  0  0
  4  5  2  0  0  0
  5  6  1  0  0  0
  5  7  1  0  0  0
  7  8  1  0  0  0
  7  9  2  0  0  0
  9 10  1  0  0  0
  9 26  1  0  0  0
 10 24  1  0  0  0
 10 11  2  0  0  0
 11 12  1  0  0  0
 12 21  2  0  0  0
 12 13  1  0  0  0
 13 14  1  0  0  0
 13 15  2  0  0  0
 15 16  1  0  0  0
 15 17  1  0  0  0
 17 18  1  0  0  0
 17 19  2  0  0  0
 19 20  1  0  0  0
 19 21  1  0  0  0
 21 22  1  0  0  0
 22 23  2  0  0  0
 22 24  1  0  0  0
 24 25  1  0  0  0
 26 27  1  0  0  0
 26 28  2  0  0  0
 28 29  1  0  0  0
 30 31  1  0  0  0
 30 32  1  0  0  0
 30 33  1  0  0  0
 34 35  1  0  0  0
 34 36  1  0  0  0
 34 37  1  0  0  0
M  END
> <s_m_source_file>
ligprep_tnks2.smi

> <i_m_source_file_index>
6

> <i_lp_mmshare_version>
53161

> <i_f3d_flags>
0

> <s_epik_input>
W09IXUMoW0NIM10pKFtDSDNdKWMxW2NIXVtjSF1jKFtjSF1bY0hdMSktYyhuMilbbkhdYyg9TyljKGMyMyljKEYpW2NIXVtjSF1bY0hdMw==

> <s_epik_cmdline>
J2VwaWtfcHl0aG9uJywgJy1waHQnLCAnMC4wJywgJy1waCcsICc3LjQnLCAnLXRuJywgJzgnLCAnLW1hJywgJzUwMCcsICctaW1hZScsICc8aW5maWxlLm1hZT4nLCAnLW9tYWUnLCAnPG91dGZpbGUubWFlPic=

> <r_lp_tautomer_probability>
1

> <r_epik_Ionization_Penalty>
0.0137

> <r_epik_Ionization_Penalty_Charging>
0.0137

> <r_epik_Ionization_Penalty_Neutral>
0

> <r_epik_State_Penalty>
-0

> <r_epik_Charging_Adjusted_Penalty>
0.0137428

> <i_epik_Tot_Q>
0

> <i_epik_Tot_abs_Q>
0

> <s_lp_Force_Field>
S-OPLS

> <r_lp_Energy>
14.4489

> <b_lp_Chiralities_Consistent>
1

> <s_lp_Variant>
lig_5b-1

> <s_i_glide_gridfile>
glide-grid_4UI5-TNKS2

> <i_i_glide_lignum>
6

> <i_i_glide_rotatable_bonds>
3

> <r_i_docking_score>
-12.0976

> <r_i_glide_ligand_efficiency>
-0.549891

> <r_i_glide_ligand_efficiency_sa>
-1.54082

> <r_i_glide_ligand_efficiency_ln>
-2.95709

> <r_i_glide_gscore>
-12.0976

> <r_i_glide_lipo>
-4.44939

> <r_i_glide_hbond>
-1.14303

> <r_i_glide_metal>
-0

> <r_i_glide_rewards>
-3.21791

> <r_i_glide_evdw>
-43.8959

> <r_i_glide_ecoul>
-10.1532

> <r_i_glide_erotb>
0.433004

> <r_i_glide_esite>
-0.00250641

> <r_i_glide_emodel>
-85.4285

> <r_i_glide_energy>
-54.0491

> <r_i_glide_einternal>
2.90743

> <i_i_glide_confnum>
12

> <i_i_glide_posenum>
8

> <r_i_glide_eff_state_penalty>
-0

> <r_i_glide_rmsd>
0.0903811

> <s_glide_core_constrain_type>
snapped_core_restrain
$$$$