lig_2750
                    3D
 Schrodinger Suite 2021-1.
 43 46  0  0  1  0            999 V2000
  -18.6775   -9.0797   37.3716 H   0  0  0  0  0  0
  -18.6769   -9.7892   38.1805 C   0  0  0  0  0  0
  -18.3909   -9.3122   39.3779 N   0  0  0  0  0  0
  -18.5057  -10.3719   40.2030 N   0  0  0  0  0  0
  -18.2669  -10.2012   41.6212 C   0  0  0  0  0  0
  -18.7891  -10.9994   42.1501 H   0  0  0  0  0  0
  -18.7138   -9.2579   41.9392 H   0  0  0  0  0  0
  -16.7695  -10.2449   41.9587 C   0  0  0  0  0  0
  -16.3022  -11.1532   41.5776 H   0  0  0  0  0  0
  -16.6137  -10.2394   43.2804 F   0  0  0  0  0  0
  -16.1164   -9.2031   41.4408 F   0  0  0  0  0  0
  -18.8602  -11.5175   39.5286 C   0  0  0  0  0  0
  -19.0101  -12.4470   40.0520 H   0  0  0  0  0  0
  -18.9524  -11.1906   38.2052 C   0  0  0  0  0  0
  -19.3062  -12.1046   37.1059 C   0  0  0  0  0  0
  -19.8847  -13.3518   37.1476 C   0  0  0  0  0  0
  -20.3428  -14.1463   38.3345 C   0  0  0  0  0  0
  -20.8999  -13.5244   39.0323 H   0  0  0  0  0  0
  -20.9992  -14.9646   38.0392 H   0  0  0  0  0  0
  -19.4952  -14.5789   38.8652 H   0  0  0  0  0  0
  -20.0503  -13.8762   35.8745 N   0  0  0  0  0  0
  -19.5958  -12.9516   35.0235 C   0  0  0  0  0  0
  -19.4992  -12.8921   33.5874 C   0  0  0  0  0  0
  -19.9118  -13.9594   32.7514 N   0  0  0  0  0  0
  -19.4528  -14.0195   31.3644 C   0  0  0  0  0  0
  -20.0727  -13.3744   30.7369 H   0  0  0  0  0  0
  -18.4256  -13.6590   31.2972 H   0  0  0  0  0  0
  -19.5023  -15.4678   30.8446 C   0  0  0  0  0  0
  -18.7737  -16.0959   31.3580 H   0  0  0  0  0  0
  -19.2447  -15.4916   29.7882 H   0  0  0  0  0  0
  -20.8156  -15.9960   31.0158 O   0  0  0  0  0  0
  -21.2037  -16.0446   32.3866 C   0  0  0  0  0  0
  -20.5465  -16.7000   32.9502 H   0  0  0  0  0  0
  -22.2054  -16.4646   32.4558 H   0  0  0  0  0  0
  -21.1891  -14.6302   32.9903 C   0  0  0  0  0  0
  -21.4738  -14.6757   34.0374 H   0  0  0  0  0  0
  -21.9670  -14.0312   32.5083 H   0  0  0  0  0  0
  -18.9723  -11.8563   32.9935 N   0  0  0  0  0  0
  -18.4739  -10.8344   33.7422 C   0  0  0  0  0  0
  -18.0234  -10.0160   33.1853 H   0  0  0  0  0  0
  -18.5028  -10.7914   35.1063 C   0  0  0  0  0  0
  -18.0631   -9.9854   35.6705 H   0  0  0  0  0  0
  -19.0858  -11.8404   35.7537 N   0  0  0  0  0  0
  1  2  1  0  0  0
  2 14  1  0  0  0
  2  3  2  0  0  0
  3  4  1  0  0  0
  4  5  1  0  0  0
  4 12  1  0  0  0
  5  6  1  0  0  0
  5  7  1  0  0  0
  5  8  1  0  0  0
  8  9  1  0  0  0
  8 10  1  0  0  0
  8 11  1  0  0  0
 12 13  1  0  0  0
 12 14  2  0  0  0
 14 15  1  0  0  0
 15 43  1  0  0  0
 15 16  2  0  0  0
 16 17  1  0  0  0
 16 21  1  0  0  0
 17 18  1  0  0  0
 17 19  1  0  0  0
 17 20  1  0  0  0
 21 22  2  0  0  0
 22 43  1  0  0  0
 22 23  1  0  0  0
 23 24  1  0  0  0
 23 38  2  0  0  0
 24 35  1  0  0  0
 24 25  1  0  0  0
 25 26  1  0  0  0
 25 27  1  0  0  0
 25 28  1  0  0  0
 28 29  1  0  0  0
 28 30  1  0  0  0
 28 31  1  0  0  0
 31 32  1  0  0  0
 32 33  1  0  0  0
 32 34  1  0  0  0
 32 35  1  0  0  0
 35 36  1  0  0  0
 35 37  1  0  0  0
 38 39  1  0  0  0
 39 40  1  0  0  0
 39 41  2  0  0  0
 41 42  1  0  0  0
 41 43  1  0  0  0
M  END
> <s_m_source_file>
ligprep_pde10.smi

> <i_m_source_file_index>
12

> <i_lp_mmshare_version>
53161

> <i_f3d_flags>
0

> <s_epik_input>
RltDSF0oRilbQ0gyXW4xbltjSF1jKFtjSF0xKS1jKGMobjIpW0NIM10pbihjMjMpW2NIXVtjSF1uYzNONFtDSDJdW0NIMl1PW0NIMl1bQ0gyXTQ=

> <s_epik_cmdline>
J2VwaWtfcHl0aG9uJywgJy1waHQnLCAnMC4wJywgJy1waCcsICc3LjQnLCAnLXRuJywgJzgnLCAnLW1hJywgJzUwMCcsICctaW1hZScsICc8aW5maWxlLm1hZT4nLCAnLW9tYWUnLCAnPG91dGZpbGUubWFlPic=

> <r_lp_tautomer_probability>
1

> <r_epik_Ionization_Penalty>
0.0004

> <r_epik_Ionization_Penalty_Charging>
0.0003

> <r_epik_Ionization_Penalty_Neutral>
0

> <r_epik_State_Penalty>
-0

> <r_epik_Charging_Adjusted_Penalty>
0.000349532

> <i_epik_Tot_Q>
0

> <i_epik_Tot_abs_Q>
0

> <s_lp_Force_Field>
S-OPLS

> <r_lp_Energy>
25.6829

> <b_lp_Chiralities_Consistent>
1

> <s_lp_Variant>
lig_2750-1

> <s_i_glide_gridfile>
glide-grid_4BBX-PDE10

> <i_i_glide_lignum>
13

> <i_i_glide_rotatable_bonds>
4

> <r_i_docking_score>
-7.44963

> <r_i_glide_ligand_efficiency>
-0.297985

> <r_i_glide_ligand_efficiency_sa>
-0.871313

> <r_i_glide_ligand_efficiency_ln>
-1.76578

> <r_i_glide_gscore>
-7.44963

> <r_i_glide_lipo>
-2.8993

> <r_i_glide_hbond>
-0.281528

> <r_i_glide_metal>
-0

> <r_i_glide_rewards>
-2.30006

> <r_i_glide_evdw>
-33.0897

> <r_i_glide_ecoul>
-5.06107

> <r_i_glide_erotb>
0.470601

> <r_i_glide_esite>
-0.025693

> <r_i_glide_emodel>
-54.9041

> <r_i_glide_energy>
-38.1508

> <r_i_glide_einternal>
0.278955

> <i_i_glide_confnum>
14

> <i_i_glide_posenum>
11

> <r_i_glide_eff_state_penalty>
-0

> <r_i_glide_rmsd>
0.0875943

> <s_glide_core_constrain_type>
snapped_core_restrain
$$$$