lig_52
                    3D
 Schrodinger Suite 2021-1.
 53 57  0  0  1  0            999 V2000
   96.7230   45.9054  267.0885 H   0  0  0  0  0  0
   96.0166   46.7137  267.2169 C   0  0  0  0  0  0
   94.7492   46.4923  266.8136 N   0  0  0  0  0  0
   93.8606   47.5065  266.9478 C   0  0  0  0  0  0
   94.2505   48.7550  267.5179 C   0  0  0  0  0  0
   95.5140   48.9298  267.9831 N   0  0  0  0  0  0
   96.3938   47.9244  267.8147 C   0  0  0  0  0  0
   97.4066   48.0964  268.1529 H   0  0  0  0  0  0
   93.3042   49.8084  267.5954 C   0  0  0  0  0  0
   93.6477   51.1145  268.1734 C   0  0  0  0  0  0
   94.6335   51.9712  267.6537 C   0  0  0  0  0  0
   95.1887   51.6797  266.7725 H   0  0  0  0  0  0
   94.8879   53.2170  268.2696 C   0  0  0  0  0  0
   95.6353   53.8719  267.8488 H   0  0  0  0  0  0
   94.1713   53.6306  269.4152 C   0  0  0  0  0  0
   94.1646   54.8126  270.2198 C   0  0  0  0  0  0
   94.7528   55.6997  270.0518 H   0  0  0  0  0  0
   93.3290   54.5612  271.2695 C   0  0  0  0  0  0
   93.0968   55.1716  272.1285 H   0  0  0  0  0  0
   92.7474   53.3197  271.1439 N   0  0  0  0  0  0
   91.8260   52.7925  272.1460 C   0  0  0  0  0  0
   91.1266   53.5715  272.4138 H   0  0  0  0  0  0
   92.3737   52.5520  273.0552 H   0  0  0  0  0  0
   91.0679   51.5716  271.6910 C   0  0  0  0  0  0
   90.3738   51.1852  272.4136 H   0  0  0  0  0  0
   91.7802   50.7654  271.5956 H   0  0  0  0  0  0
   90.5316   51.7488  270.7569 H   0  0  0  0  0  0
   93.2263   52.7225  269.9743 C   0  0  0  0  0  0
   92.9564   51.5005  269.3284 C   0  0  0  0  0  0
   92.2223   50.8022  269.6669 H   0  0  0  0  0  0
   91.9738   49.5772  267.1819 C   0  0  0  0  0  0
   91.2470   50.3715  267.2767 H   0  0  0  0  0  0
   91.5711   48.3411  266.6531 C   0  0  0  0  0  0
   90.2215   48.1503  266.3195 N   0  0  0  0  0  0
   89.5454   48.6797  266.8643 H   0  0  0  0  0  0
   89.6550   47.3266  265.3295 C   0  0  0  0  0  0
   90.3826   46.9348  264.1826 C   0  0  0  0  0  0
   91.4044   47.2521  264.0316 H   0  0  0  0  0  0
   89.8796   46.1481  263.2135 N   0  0  0  0  0  0
   88.6058   45.7330  263.3027 C   0  0  0  0  0  0
   88.2472   45.1066  262.5017 H   0  0  0  0  0  0
   87.7777   46.0748  264.3764 C   0  0  0  0  0  0
   86.7618   45.7052  264.4212 H   0  0  0  0  0  0
   88.3058   46.8857  265.3986 C   0  0  0  0  0  0
   87.2296   47.2122  266.7932 S   0  0  0  0  0  0
   85.8422   47.1497  266.3224 O   0  0  0  0  0  0
   87.6914   48.4255  267.4797 O   0  0  0  0  0  0
   87.5329   45.7877  267.8999 C   0  0  0  0  0  0
   86.9110   45.8828  268.7893 H   0  0  0  0  0  0
   87.2879   44.8655  267.3703 H   0  0  0  0  0  0
   88.5845   45.7754  268.1840 H   0  0  0  0  0  0
   92.5250   47.3166  266.5298 C   0  0  0  0  0  0
   92.2286   46.3619  266.1268 H   0  0  0  0  0  0
  1  2  1  0  0  0
  2  7  1  0  0  0
  2  3  2  0  0  0
  3  4  1  0  0  0
  4 52  1  0  0  0
  4  5  2  0  0  0
  5  6  1  0  0  0
  5  9  1  0  0  0
  6  7  2  0  0  0
  7  8  1  0  0  0
  9 10  1  0  0  0
  9 31  2  0  0  0
 10 29  1  0  0  0
 10 11  2  0  0  0
 11 12  1  0  0  0
 11 13  1  0  0  0
 13 14  1  0  0  0
 13 15  2  0  0  0
 15 28  1  0  0  0
 15 16  1  0  0  0
 16 17  1  0  0  0
 16 18  2  0  0  0
 18 19  1  0  0  0
 18 20  1  0  0  0
 20 21  1  0  0  0
 20 28  1  0  0  0
 21 22  1  0  0  0
 21 23  1  0  0  0
 21 24  1  0  0  0
 24 25  1  0  0  0
 24 26  1  0  0  0
 24 27  1  0  0  0
 28 29  2  0  0  0
 29 30  1  0  0  0
 31 32  1  0  0  0
 31 33  1  0  0  0
 33 34  1  0  0  0
 33 52  2  0  0  0
 34 35  1  0  0  0
 34 36  1  0  0  0
 36 44  1  0  0  0
 36 37  2  0  0  0
 37 38  1  0  0  0
 37 39  1  0  0  0
 39 40  2  0  0  0
 40 41  1  0  0  0
 40 42  1  0  0  0
 42 43  1  0  0  0
 42 44  2  0  0  0
 44 45  1  0  0  0
 45 46  2  0  0  0
 45 47  2  0  0  0
 45 48  1  0  0  0
 48 49  1  0  0  0
 48 50  1  0  0  0
 48 51  1  0  0  0
 52 53  1  0  0  0
M  END
> <s_m_source_file>
ligprep_pfkfb3.smi

> <i_m_source_file_index>
24

> <i_lp_mmshare_version>
53161

> <i_f3d_flags>
0

> <s_epik_input>
W2NIXTFbY0hdbihbQ0gyXVtDSDNdKWMoYzEyKVtjSF1jKFtjSF1bY0hdMiktYyhjKGMzNCluW2NIXVtjSF1uMylbY0hdYyhbY0hdNClbTkhdYzVbY0hdbltjSF1bY0hdYzVTKD1PKSg9TylbQ0gzXQ==

> <s_epik_cmdline>
J2VwaWtfcHl0aG9uJywgJy1waHQnLCAnMC4wJywgJy1waCcsICc3LjQnLCAnLXRuJywgJzgnLCAnLW1hJywgJzUwMCcsICctaW1hZScsICc8aW5maWxlLm1hZT4nLCAnLW9tYWUnLCAnPG91dGZpbGUubWFlPic=

> <r_lp_tautomer_probability>
1

> <r_epik_Ionization_Penalty>
0

> <r_epik_Ionization_Penalty_Charging>
0

> <r_epik_Ionization_Penalty_Neutral>
0

> <r_epik_State_Penalty>
-0

> <r_epik_Charging_Adjusted_Penalty>
0

> <i_epik_Tot_Q>
0

> <i_epik_Tot_abs_Q>
0

> <s_lp_Force_Field>
S-OPLS

> <r_lp_Energy>
50.3593

> <b_lp_Chiralities_Consistent>
1

> <s_lp_Variant>
lig_52-1

> <s_i_glide_gridfile>
glide-grid_6HVI-PFKFB3

> <i_i_glide_lignum>
24

> <i_i_glide_rotatable_bonds>
5

> <r_i_docking_score>
-11.4869

> <r_i_glide_ligand_efficiency>
-0.358965

> <r_i_glide_ligand_efficiency_sa>
-1.13964

> <r_i_glide_ligand_efficiency_ln>
-2.57223

> <r_i_glide_gscore>
-11.4869

> <r_i_glide_lipo>
-6.19388

> <r_i_glide_hbond>
-0.32

> <r_i_glide_metal>
-0

> <r_i_glide_rewards>
-1.35442

> <r_i_glide_evdw>
-58.9579

> <r_i_glide_ecoul>
-6.67488

> <r_i_glide_erotb>
0.406531

> <r_i_glide_esite>
-0.0760041

> <r_i_glide_emodel>
-103.283

> <r_i_glide_energy>
-65.6327

> <r_i_glide_einternal>
6.73116

> <i_i_glide_confnum>
3

> <i_i_glide_posenum>
3

> <r_i_glide_eff_state_penalty>
-0

> <r_i_glide_rmsd>
0.0834791

> <s_glide_core_constrain_type>
snapped_core_restrain
$$$$