lig_70
                    3D
 Schrodinger Suite 2021-1.
 49 53  0  0  1  0            999 V2000
   96.7154   45.9413  267.0635 H   0  0  0  0  0  0
   96.0016   46.7391  267.2140 C   0  0  0  0  0  0
   94.7345   46.5082  266.8137 N   0  0  0  0  0  0
   93.8326   47.5121  266.9692 C   0  0  0  0  0  0
   94.2058   48.7508  267.5783 C   0  0  0  0  0  0
   95.4733   48.9412  268.0135 N   0  0  0  0  0  0
   96.3711   47.9544  267.8159 C   0  0  0  0  0  0
   97.3880   48.1376  268.1281 H   0  0  0  0  0  0
   93.2362   49.7793  267.7165 C   0  0  0  0  0  0
   93.5630   51.0794  268.3314 C   0  0  0  0  0  0
   94.5483   51.9220  267.7625 C   0  0  0  0  0  0
   95.0704   51.6086  266.8683 H   0  0  0  0  0  0
   94.8370   53.1767  268.3334 C   0  0  0  0  0  0
   95.5799   53.8273  267.8998 H   0  0  0  0  0  0
   94.1068   53.5735  269.4630 C   0  0  0  0  0  0
   94.1952   54.7714  270.1361 O   0  0  0  0  0  0
   93.3677   54.6661  271.2183 C   0  0  0  0  0  0
   93.3536   55.5309  271.8622 H   0  0  0  0  0  0
   92.7081   53.4630  271.2546 C   0  0  0  0  0  0
   91.7452   52.9915  272.2965 C   0  0  0  0  0  0
   90.7734   52.7602  271.8605 H   0  0  0  0  0  0
   91.5989   53.7431  273.0746 H   0  0  0  0  0  0
   92.1089   52.0850  272.7843 H   0  0  0  0  0  0
   93.1512   52.7479  270.0974 C   0  0  0  0  0  0
   92.8864   51.4986  269.5019 C   0  0  0  0  0  0
   92.1485   50.8460  269.9568 H   0  0  0  0  0  0
   91.9195   49.5542  267.2688 C   0  0  0  0  0  0
   91.1818   50.3291  267.3932 H   0  0  0  0  0  0
   91.5396   48.3351  266.6845 C   0  0  0  0  0  0
   90.1980   48.1576  266.3189 N   0  0  0  0  0  0
   89.5158   48.6771  266.8581 H   0  0  0  0  0  0
   89.6441   47.3258  265.3272 C   0  0  0  0  0  0
   88.2970   46.8820  265.4001 C   0  0  0  0  0  0
   87.2277   47.2243  266.7978 S   0  0  0  0  0  0
   85.8363   47.1591  266.3232 O   0  0  0  0  0  0
   87.6890   48.4340  267.4870 O   0  0  0  0  0  0
   87.5238   45.8043  267.9142 C   0  0  0  0  0  0
   86.9000   45.9108  268.8023 H   0  0  0  0  0  0
   87.2827   44.8786  267.3894 H   0  0  0  0  0  0
   88.5746   45.7955  268.2058 H   0  0  0  0  0  0
   87.7736   46.0571  264.3849 C   0  0  0  0  0  0
   86.7639   45.6734  264.4327 H   0  0  0  0  0  0
   88.6032   45.7156  263.3096 C   0  0  0  0  0  0
   88.2447   45.0843  262.5075 H   0  0  0  0  0  0
   89.8718   46.1394  263.2130 N   0  0  0  0  0  0
   90.3737   46.9368  264.1786 C   0  0  0  0  0  0
   91.3949   47.2600  264.0227 H   0  0  0  0  0  0
   92.5037   47.3231  266.5357 C   0  0  0  0  0  0
   92.2257   46.3762  266.0994 H   0  0  0  0  0  0
  1  2  1  0  0  0
  2  7  1  0  0  0
  2  3  2  0  0  0
  3  4  1  0  0  0
  4 48  1  0  0  0
  4  5  2  0  0  0
  5  6  1  0  0  0
  5  9  1  0  0  0
  6  7  2  0  0  0
  7  8  1  0  0  0
  9 10  1  0  0  0
  9 27  2  0  0  0
 10 25  1  0  0  0
 10 11  2  0  0  0
 11 12  1  0  0  0
 11 13  1  0  0  0
 13 14  1  0  0  0
 13 15  2  0  0  0
 15 24  1  0  0  0
 15 16  1  0  0  0
 16 17  1  0  0  0
 17 18  1  0  0  0
 17 19  2  0  0  0
 19 20  1  0  0  0
 19 24  1  0  0  0
 20 21  1  0  0  0
 20 22  1  0  0  0
 20 23  1  0  0  0
 24 25  2  0  0  0
 25 26  1  0  0  0
 27 28  1  0  0  0
 27 29  1  0  0  0
 29 30  1  0  0  0
 29 48  2  0  0  0
 30 31  1  0  0  0
 30 32  1  0  0  0
 32 46  1  0  0  0
 32 33  2  0  0  0
 33 34  1  0  0  0
 33 41  1  0  0  0
 34 35  2  0  0  0
 34 36  2  0  0  0
 34 37  1  0  0  0
 37 38  1  0  0  0
 37 39  1  0  0  0
 37 40  1  0  0  0
 41 42  1  0  0  0
 41 43  2  0  0  0
 43 44  1  0  0  0
 43 45  1  0  0  0
 45 46  2  0  0  0
 46 47  1  0  0  0
 48 49  1  0  0  0
M  END
> <s_m_source_file>
ligprep_pfkfb3.smi

> <i_m_source_file_index>
40

> <i_lp_mmshare_version>
53161

> <i_f3d_flags>
0

> <s_epik_input>
bzFbY0hdYyhbQ0gzXSljKGMxMilbY0hdYyhbY0hdW2NIXTIpLWMoYyhjMzQpbltjSF1bY0hdbjMpW2NIXWMoW2NIXTQpW05IXWM1YyhTKD1PKSg9TylbQ0gzXSlbY0hdW2NIXW5bY0hdNQ==

> <s_epik_cmdline>
J2VwaWtfcHl0aG9uJywgJy1waHQnLCAnMC4wJywgJy1waCcsICc3LjQnLCAnLXRuJywgJzgnLCAnLW1hJywgJzUwMCcsICctaW1hZScsICc8aW5maWxlLm1hZT4nLCAnLW9tYWUnLCAnPG91dGZpbGUubWFlPic=

> <r_lp_tautomer_probability>
1

> <r_epik_Ionization_Penalty>
0

> <r_epik_Ionization_Penalty_Charging>
0

> <r_epik_Ionization_Penalty_Neutral>
0

> <r_epik_State_Penalty>
-0

> <r_epik_Charging_Adjusted_Penalty>
0

> <i_epik_Tot_Q>
0

> <i_epik_Tot_abs_Q>
0

> <s_lp_Force_Field>
S-OPLS

> <r_lp_Energy>
48.2265

> <b_lp_Chiralities_Consistent>
1

> <s_lp_Variant>
lig_70-1

> <s_i_glide_gridfile>
glide-grid_6HVI-PFKFB3

> <i_i_glide_lignum>
40

> <i_i_glide_rotatable_bonds>
4

> <r_i_docking_score>
-11.2966

> <r_i_glide_ligand_efficiency>
-0.364406

> <r_i_glide_ligand_efficiency_sa>
-1.14474

> <r_i_glide_ligand_efficiency_ln>
-2.54773

> <r_i_glide_gscore>
-11.2966

> <r_i_glide_lipo>
-6.23189

> <r_i_glide_hbond>
-0.32

> <r_i_glide_metal>
-0

> <r_i_glide_rewards>
-0.997915

> <r_i_glide_evdw>
-61.3749

> <r_i_glide_ecoul>
-6.87255

> <r_i_glide_erotb>
0.429145

> <r_i_glide_esite>
-0.0763081

> <r_i_glide_emodel>
-118.329

> <r_i_glide_energy>
-68.2475

> <r_i_glide_einternal>
3.30478e-07

> <i_i_glide_confnum>
3

> <i_i_glide_posenum>
3

> <r_i_glide_eff_state_penalty>
-0

> <r_i_glide_rmsd>
0.0777804

> <s_glide_core_constrain_type>
snapped_core_restrain
$$$$