lig_8041
                    3D
 Schrodinger Suite 2021-1.
 52 55  0  0  1  0            999 V2000
  -18.1922   -9.8947   33.2080 H   0  0  0  0  0  0
  -18.5693  -10.7440   33.7697 C   0  0  0  0  0  0
  -18.6476  -10.6942   35.1311 C   0  0  0  0  0  0
  -18.3511   -9.8398   35.7275 H   0  0  0  0  0  0
  -19.0984  -11.8082   35.7685 N   0  0  0  0  0  0
  -19.5552  -12.9403   35.0361 C   0  0  0  0  0  0
  -19.9672  -13.8836   35.8844 N   0  0  0  0  0  0
  -19.7776  -13.3768   37.1603 C   0  0  0  0  0  0
  -20.1794  -14.2089   38.3404 C   0  0  0  0  0  0
  -21.2642  -14.3037   38.3979 H   0  0  0  0  0  0
  -19.7637  -15.2145   38.2735 H   0  0  0  0  0  0
  -19.8404  -13.7791   39.2815 H   0  0  0  0  0  0
  -19.2210  -12.1209   37.1207 C   0  0  0  0  0  0
  -18.8670  -11.2079   38.2215 C   0  0  0  0  0  0
  -17.6229  -10.5263   38.3779 C   0  0  0  0  0  0
  -16.4468  -10.6293   37.4237 C   0  0  0  0  0  0
  -16.2462   -9.6543   36.9808 H   0  0  0  0  0  0
  -15.5549  -10.9340   37.9705 H   0  0  0  0  0  0
  -16.5924  -11.3344   36.6160 H   0  0  0  0  0  0
  -17.3450   -9.7249   39.4280 N   0  0  0  0  0  0
  -18.2481   -9.6080   40.4205 C   0  0  0  0  0  0
  -17.8605   -8.7059   41.5807 C   0  0  0  0  0  0
  -18.6205   -8.7794   42.3590 H   0  0  0  0  0  0
  -17.8775   -7.6735   41.2310 H   0  0  0  0  0  0
  -16.4844   -9.0265   42.1928 C   0  0  0  0  0  0
  -16.2848   -8.3448   43.0209 H   0  0  0  0  0  0
  -15.7074   -8.8585   41.4459 H   0  0  0  0  0  0
  -16.4119  -10.3681   42.6493 O   0  0  0  0  0  0
  -15.1217  -10.6882   43.1467 C   0  0  0  0  0  0
  -15.0857  -11.7340   43.4469 H   0  0  0  0  0  0
  -14.8732  -10.0802   44.0171 H   0  0  0  0  0  0
  -14.3530  -10.5358   42.3877 H   0  0  0  0  0  0
  -19.5103  -10.2248   40.3681 C   0  0  0  0  0  0
  -20.2295  -10.0946   41.1629 H   0  0  0  0  0  0
  -19.8182  -11.0191   39.2498 C   0  0  0  0  0  0
  -20.7835  -11.5007   39.1950 H   0  0  0  0  0  0
  -19.4786  -12.8576   33.6011 C   0  0  0  0  0  0
  -19.8687  -13.9253   32.7564 N   0  0  0  0  0  0
  -21.1540  -14.5892   32.9721 C   0  0  0  0  0  0
  -21.4159  -14.6639   34.0246 H   0  0  0  0  0  0
  -21.9306  -13.9839   32.5039 H   0  0  0  0  0  0
  -21.1530  -15.9958   32.3444 C   0  0  0  0  0  0
  -22.1528  -16.4276   32.3977 H   0  0  0  0  0  0
  -20.4941  -16.6690   32.8939 H   0  0  0  0  0  0
  -20.7496  -15.9276   30.9778 O   0  0  0  0  0  0
  -19.4288  -15.4123   30.8384 C   0  0  0  0  0  0
  -19.1431  -15.4297   29.7864 H   0  0  0  0  0  0
  -18.7177  -16.0498   31.3664 H   0  0  0  0  0  0
  -19.3786  -13.9719   31.3750 C   0  0  0  0  0  0
  -19.9916  -13.3176   30.7536 H   0  0  0  0  0  0
  -18.3509  -13.6108   31.3157 H   0  0  0  0  0  0
  -18.9970  -11.7984   33.0114 N   0  0  0  0  0  0
  1  2  1  0  0  0
  2 52  1  0  0  0
  2  3  2  0  0  0
  3  4  1  0  0  0
  3  5  1  0  0  0
  5 13  1  0  0  0
  5  6  1  0  0  0
  6  7  2  0  0  0
  6 37  1  0  0  0
  7  8  1  0  0  0
  8  9  1  0  0  0
  8 13  2  0  0  0
  9 10  1  0  0  0
  9 11  1  0  0  0
  9 12  1  0  0  0
 13 14  1  0  0  0
 14 35  1  0  0  0
 14 15  2  0  0  0
 15 16  1  0  0  0
 15 20  1  0  0  0
 16 17  1  0  0  0
 16 18  1  0  0  0
 16 19  1  0  0  0
 20 21  2  0  0  0
 21 22  1  0  0  0
 21 33  1  0  0  0
 22 23  1  0  0  0
 22 24  1  0  0  0
 22 25  1  0  0  0
 25 26  1  0  0  0
 25 27  1  0  0  0
 25 28  1  0  0  0
 28 29  1  0  0  0
 29 30  1  0  0  0
 29 31  1  0  0  0
 29 32  1  0  0  0
 33 34  1  0  0  0
 33 35  2  0  0  0
 35 36  1  0  0  0
 37 38  1  0  0  0
 37 52  2  0  0  0
 38 49  1  0  0  0
 38 39  1  0  0  0
 39 40  1  0  0  0
 39 41  1  0  0  0
 39 42  1  0  0  0
 42 43  1  0  0  0
 42 44  1  0  0  0
 42 45  1  0  0  0
 45 46  1  0  0  0
 46 47  1  0  0  0
 46 48  1  0  0  0
 46 49  1  0  0  0
 49 50  1  0  0  0
 49 51  1  0  0  0
M  END
> <s_m_source_file>
ligprep_pde10.smi

> <i_m_source_file_index>
31

> <i_lp_mmshare_version>
53161

> <i_f3d_flags>
0

> <s_epik_input>
W0NIMl0xW0NIMl1PW0NIMl1bQ0gyXU4xYyhuW2NIXVtjSF0yKWMobjIzKW5jKFtDSDNdKWMzLWM0YyhbQ0gzXSluYyhbY0hdW2NIXTQpW0NIMl1bQ0gyXU9bQ0gzXQ==

> <s_epik_cmdline>
J2VwaWtfcHl0aG9uJywgJy1waHQnLCAnMC4wJywgJy1waCcsICc3LjQnLCAnLXRuJywgJzgnLCAnLW1hJywgJzUwMCcsICctaW1hZScsICc8aW5maWxlLm1hZT4nLCAnLW9tYWUnLCAnPG91dGZpbGUubWFlPic=

> <r_lp_tautomer_probability>
1

> <r_epik_Ionization_Penalty>
0.0276

> <r_epik_Ionization_Penalty_Charging>
0.0003

> <r_epik_Ionization_Penalty_Neutral>
0.0273

> <r_epik_State_Penalty>
-0

> <r_epik_Charging_Adjusted_Penalty>
0.000307488

> <i_epik_Tot_Q>
0

> <i_epik_Tot_abs_Q>
0

> <s_lp_Force_Field>
S-OPLS

> <r_lp_Energy>
41.2105

> <b_lp_Chiralities_Consistent>
1

> <s_lp_Variant>
lig_8041-1

> <s_i_glide_gridfile>
glide-grid_4BBX-PDE10

> <i_i_glide_lignum>
32

> <i_i_glide_rotatable_bonds>
5

> <r_i_docking_score>
-7.07834

> <r_i_glide_ligand_efficiency>
-0.262161

> <r_i_glide_ligand_efficiency_sa>
-0.786482

> <r_i_glide_ligand_efficiency_ln>
-1.64772

> <r_i_glide_gscore>
-7.07834

> <r_i_glide_lipo>
-3.01187

> <r_i_glide_hbond>
-0.287063

> <r_i_glide_metal>
-0

> <r_i_glide_rewards>
-2.01448

> <r_i_glide_evdw>
-37.6954

> <r_i_glide_ecoul>
-3.00478

> <r_i_glide_erotb>
0.570563

> <r_i_glide_esite>
0

> <r_i_glide_emodel>
-55.0568

> <r_i_glide_energy>
-40.7002

> <r_i_glide_einternal>
4.6128

> <i_i_glide_confnum>
24

> <i_i_glide_posenum>
44

> <r_i_glide_eff_state_penalty>
-0

> <r_i_glide_rmsd>
0.101434

> <s_glide_core_constrain_type>
snapped_core_restrain
$$$$