lig_206
                    3D
 Schrodinger Suite 2021-1.
 41 43  0  0  1  0            999 V2000
   28.2938    2.0332  -11.8366 H   0  0  0  0  0  0
   27.6259    1.6752  -11.2575 O   0  0  0  0  0  0
   27.2736    0.3970  -11.7249 C   0  0  1  0  0  0
   28.1417   -0.2578  -11.7605 H   0  0  0  0  0  0
   26.1516   -0.1305  -10.8761 C   0  0  0  0  0  0
   24.9351    0.0454  -11.5285 C   0  0  0  0  0  0
   23.7195   -0.3273  -10.9420 C   0  0  0  0  0  0
   22.5857   -0.1715  -11.6976 O   0  0  0  0  0  0
   21.3672   -0.4786  -11.1685 C   0  0  0  0  0  0
   20.7970   -1.7460  -11.3925 C   0  0  0  0  0  0
   21.3305   -2.4930  -11.9627 H   0  0  0  0  0  0
   19.5212   -2.0326  -10.8762 C   0  0  0  0  0  0
   18.9521   -3.2359  -11.1014 F   0  0  0  0  0  0
   18.8202   -1.0571  -10.1465 C   0  0  0  0  0  0
   17.8423   -1.2952   -9.7574 H   0  0  0  0  0  0
   19.3796    0.2195   -9.9485 C   0  0  0  0  0  0
   18.6445    1.2536   -9.2473 C   0  0  0  0  0  0
   18.0621    2.0755   -8.6827 N   0  0  0  0  0  0
   20.6623    0.4992  -10.4447 C   0  0  0  0  0  0
   21.1023    1.4732  -10.2825 H   0  0  0  0  0  0
   23.7544   -0.8629   -9.6282 C   0  0  0  0  0  0
   22.8457   -1.1643   -9.1268 H   0  0  0  0  0  0
   24.9886   -1.0426   -8.9583 C   0  0  0  0  0  0
   24.9942   -1.4639   -7.9641 H   0  0  0  0  0  0
   26.2085   -0.7004   -9.5852 C   0  0  0  0  0  0
   27.7616   -0.9451   -8.6960 S   0  0  0  0  0  0
   27.5034   -1.8874   -7.5957 O   0  0  0  0  0  0
   28.8199   -1.2637   -9.6546 O   0  0  0  0  0  0
   28.1509    0.7065   -7.9693 C   0  0  0  0  0  0
   29.2165    0.7393   -7.7473 H   0  0  0  0  0  0
   27.9440    1.4749   -8.7125 H   0  0  0  0  0  0
   27.3362    0.9033   -6.7381 C   0  0  0  0  0  0
   27.2253    1.9535   -6.4768 H   0  0  0  0  0  0
   26.4259    0.4780   -7.0822 H   0  0  0  0  0  0
   27.6560    0.3162   -5.8832 H   0  0  0  0  0  0
   25.1077    0.6316  -12.9043 C   0  0  0  0  0  0
   24.5316    0.0955  -13.6581 H   0  0  0  0  0  0
   24.7785    1.6710  -12.8851 H   0  0  0  0  0  0
   26.6275    0.5339  -13.1267 C   0  0  0  0  0  0
   27.1235    1.5382  -13.8531 F   0  0  0  0  0  0
   26.8544   -0.6050  -13.7829 F   0  0  0  0  0  0
  1  2  1  0  0  0
  2  3  1  0  0  0
  3 39  1  0  0  0
  3  4  1  0  0  0
  3  5  1  0  0  0
  5 25  1  0  0  0
  5  6  2  0  0  0
  6  7  1  0  0  0
  6 36  1  0  0  0
  7  8  1  0  0  0
  7 21  2  0  0  0
  8  9  1  0  0  0
  9 19  1  0  0  0
  9 10  2  0  0  0
 10 11  1  0  0  0
 10 12  1  0  0  0
 12 13  1  0  0  0
 12 14  2  0  0  0
 14 15  1  0  0  0
 14 16  1  0  0  0
 16 17  1  0  0  0
 16 19  2  0  0  0
 17 18  3  0  0  0
 19 20  1  0  0  0
 21 22  1  0  0  0
 21 23  1  0  0  0
 23 24  1  0  0  0
 23 25  2  0  0  0
 25 26  1  0  0  0
 26 27  2  0  0  0
 26 28  2  0  0  0
 26 29  1  0  0  0
 29 30  1  0  0  0
 29 31  1  0  0  0
 29 32  1  0  0  0
 32 33  1  0  0  0
 32 34  1  0  0  0
 32 35  1  0  0  0
 36 37  1  0  0  0
 36 38  1  0  0  0
 36 39  1  0  0  0
 39 40  1  0  0  0
 39 41  1  0  0  0
M  END
> <s_m_source_file>
ligprep_hif2a.smi

> <i_m_source_file_index>
10

> <i_lp_mmshare_version>
53161

> <i_f3d_flags>
0

> <s_epik_input>
W0NIM11bQ0gyXVMoPU8pKD1PKWMxW2NIXVtjSF1jKGMoYzEyKVtDSDJdQyhGKShGKVtDQEhdMltPSF0pT2MzW2NIXWMoRilbY0hdYyhDI04pW2NIXTM=

> <s_epik_cmdline>
J2VwaWtfcHl0aG9uJywgJy1waHQnLCAnMC4wJywgJy1waCcsICc3LjQnLCAnLXRuJywgJzgnLCAnLW1hJywgJzUwMCcsICctaW1hZScsICc8aW5maWxlLm1hZT4nLCAnLW9tYWUnLCAnPG91dGZpbGUubWFlPic=

> <r_lp_tautomer_probability>
1

> <r_epik_Ionization_Penalty>
0.0012

> <r_epik_Ionization_Penalty_Charging>
0

> <r_epik_Ionization_Penalty_Neutral>
0.0012

> <r_epik_State_Penalty>
-0

> <r_epik_Charging_Adjusted_Penalty>
0

> <i_epik_Tot_Q>
0

> <i_epik_Tot_abs_Q>
0

> <s_lp_Force_Field>
S-OPLS

> <r_lp_Energy>
27.9323

> <b_lp_Chiralities_Consistent>
1

> <s_lp_Variant>
lig_206-1

> <s_i_glide_gridfile>
glide-grid_5TBM-HIF2a

> <i_i_glide_lignum>
10

> <i_i_glide_rotatable_bonds>
5

> <r_i_docking_score>
-12.0313

> <r_i_glide_ligand_efficiency>
-0.445604

> <r_i_glide_ligand_efficiency_sa>
-1.33681

> <r_i_glide_ligand_efficiency_ln>
-2.80069

> <r_i_glide_gscore>
-12.0313

> <r_i_glide_lipo>
-4.91015

> <r_i_glide_hbond>
-0.608

> <r_i_glide_metal>
-0

> <r_i_glide_rewards>
-3.32528

> <r_i_glide_evdw>
-48.9027

> <r_i_glide_ecoul>
-9.08368

> <r_i_glide_erotb>
0.619816

> <r_i_glide_esite>
0

> <r_i_glide_emodel>
-95.6115

> <r_i_glide_energy>
-57.9864

> <r_i_glide_einternal>
3.43475

> <i_i_glide_confnum>
3

> <i_i_glide_posenum>
29

> <r_i_glide_eff_state_penalty>
-0

> <r_i_glide_rmsd>
0.0871109

> <s_glide_core_constrain_type>
snapped_core_restrain
$$$$