lig_1a
                    3D
 Schrodinger Suite 2021-1.
 27 29  0  0  1  0            999 V2000
  -38.7070  -10.5909    6.8002 H   0  0  0  0  0  0
  -38.7232  -10.8466    7.8470 C   0  0  0  0  0  0
  -39.2376  -12.0893    8.2625 C   0  0  0  0  0  0
  -39.6131  -12.7941    7.5379 H   0  0  0  0  0  0
  -39.2657  -12.4252    9.6286 C   0  0  0  0  0  0
  -39.6515  -13.3926    9.9275 H   0  0  0  0  0  0
  -38.7943  -11.5062   10.5932 C   0  0  0  0  0  0
  -38.8530  -11.8375   12.0501 C   0  0  0  0  0  0
  -39.5714  -12.8404   12.4824 N   0  0  0  0  0  0
  -39.6086  -13.1409   13.8562 C   0  0  0  0  0  0
  -40.4101  -14.2067   14.3174 C   0  0  0  0  0  0
  -40.9761  -14.7996   13.6116 H   0  0  0  0  0  0
  -40.4892  -14.4954   15.6950 C   0  0  0  0  0  0
  -41.1079  -15.3083   16.0456 H   0  0  0  0  0  0
  -39.7668  -13.7166   16.6185 C   0  0  0  0  0  0
  -39.8410  -13.9380   17.6709 H   0  0  0  0  0  0
  -38.9496  -12.6614   16.1689 C   0  0  0  0  0  0
  -38.3910  -12.0717   16.8829 H   0  0  0  0  0  0
  -38.8729  -12.3782   14.7914 C   0  0  0  0  0  0
  -38.0190  -11.2695   14.2693 C   0  0  0  0  0  0
  -37.2951  -10.6026   15.0048 O   0  0  0  0  0  0
  -38.0920  -11.0714   12.9453 N   0  0  0  0  0  0
  -37.4845  -10.3603   12.5562 H   0  0  0  0  0  0
  -38.2642  -10.2632   10.1681 C   0  0  0  0  0  0
  -37.8900   -9.5386   10.8788 H   0  0  0  0  0  0
  -38.2257   -9.9391    8.7996 C   0  0  0  0  0  0
  -37.8216   -8.9876    8.4856 H   0  0  0  0  0  0
  1  2  1  0  0  0
  2 26  1  0  0  0
  2  3  2  0  0  0
  3  4  1  0  0  0
  3  5  1  0  0  0
  5  6  1  0  0  0
  5  7  2  0  0  0
  7  8  1  0  0  0
  7 24  1  0  0  0
  8 22  1  0  0  0
  8  9  2  0  0  0
  9 10  1  0  0  0
 10 19  2  0  0  0
 10 11  1  0  0  0
 11 12  1  0  0  0
 11 13  2  0  0  0
 13 14  1  0  0  0
 13 15  1  0  0  0
 15 16  1  0  0  0
 15 17  2  0  0  0
 17 18  1  0  0  0
 17 19  1  0  0  0
 19 20  1  0  0  0
 20 21  2  0  0  0
 20 22  1  0  0  0
 22 23  1  0  0  0
 24 25  1  0  0  0
 24 26  2  0  0  0
 26 27  1  0  0  0
M  END
> <s_m_source_file>
ligprep_tnks2.smi

> <i_m_source_file_index>
1

> <i_lp_mmshare_version>
53161

> <i_f3d_flags>
0

> <s_epik_input>
W2NIXTFbY0hdW2NIXVtjSF1bY0hdYzEtYyhuMilbbkhdYyg9TyljKGMyMylbY0hdW2NIXVtjSF1bY0hdMw==

> <s_epik_cmdline>
J2VwaWtfcHl0aG9uJywgJy1waHQnLCAnMC4wJywgJy1waCcsICc3LjQnLCAnLXRuJywgJzgnLCAnLW1hJywgJzUwMCcsICctaW1hZScsICc8aW5maWxlLm1hZT4nLCAnLW9tYWUnLCAnPG91dGZpbGUubWFlPic=

> <r_lp_tautomer_probability>
1

> <r_epik_Ionization_Penalty>
0.0253

> <r_epik_Ionization_Penalty_Charging>
0.0253

> <r_epik_Ionization_Penalty_Neutral>
0

> <r_epik_State_Penalty>
-0

> <r_epik_Charging_Adjusted_Penalty>
0.0253363

> <i_epik_Tot_Q>
0

> <i_epik_Tot_abs_Q>
0

> <s_lp_Force_Field>
S-OPLS

> <r_lp_Energy>
22.7281

> <b_lp_Chiralities_Consistent>
1

> <s_lp_Variant>
lig_1a-1

> <s_i_glide_gridfile>
glide-grid_4UI5-TNKS2

> <i_i_glide_lignum>
1

> <i_i_glide_rotatable_bonds>
1

> <r_i_docking_score>
-11.631

> <r_i_glide_ligand_efficiency>
-0.684177

> <r_i_glide_ligand_efficiency_sa>
-1.75921

> <r_i_glide_ligand_efficiency_ln>
-3.03427

> <r_i_glide_gscore>
-11.631

> <r_i_glide_lipo>
-3.85796

> <r_i_glide_hbond>
-0.864

> <r_i_glide_metal>
-0

> <r_i_glide_rewards>
-3.71276

> <r_i_glide_evdw>
-41.0948

> <r_i_glide_ecoul>
-9.20684

> <r_i_glide_erotb>
0.239473

> <r_i_glide_esite>
0

> <r_i_glide_emodel>
-87.1358

> <r_i_glide_energy>
-50.3016

> <r_i_glide_einternal>
3.24709e-11

> <i_i_glide_confnum>
2

> <i_i_glide_posenum>
2

> <r_i_glide_eff_state_penalty>
-0

> <r_i_glide_rmsd>
0.0299584

> <s_glide_core_constrain_type>
snapped_core_restrain
$$$$