lig_CHEMBL3265011
                    3D
 Schrodinger Suite 2021-1.
 51 54  0  0  1  0            999 V2000
    6.2283   -0.9324   17.2639 H   0  0  0  0  0  0
    5.5982   -0.5643   16.4683 C   0  0  0  0  0  0
    5.8592    0.4053   15.5416 C   0  0  0  0  0  0
    6.7226    1.0341   15.3593 H   0  0  0  0  0  0
    4.7108    0.5254   14.7882 N   0  0  0  0  0  0
    3.7900   -0.4241   15.2794 C   0  0  0  0  0  0
    4.3298   -1.1022   16.2925 N   0  0  0  0  0  0
    2.5050   -0.4482   14.6624 C   0  0  0  0  0  0
    1.5762   -1.3590   15.1996 N   0  0  0  0  0  0
    1.9812   -1.9188   15.9439 H   0  0  0  0  0  0
    0.1986   -1.5460   15.0089 C   0  0  0  0  0  0
   -0.4111   -2.5514   15.7842 C   0  0  0  0  0  0
    0.1725   -3.1369   16.4812 H   0  0  0  0  0  0
   -1.7887   -2.8064   15.6581 C   0  0  0  0  0  0
   -2.2364   -3.5811   16.2593 H   0  0  0  0  0  0
   -2.5787   -2.0581   14.7631 C   0  0  0  0  0  0
   -3.9231   -2.3152   14.6668 O   0  0  0  0  0  0
   -4.2622   -3.1096   13.5414 C   0  0  0  0  0  0
   -5.3370   -3.2885   13.5271 H   0  0  0  0  0  0
   -4.0062   -2.6196   12.6029 H   0  0  0  0  0  0
   -3.7572   -4.0759   13.5710 H   0  0  0  0  0  0
   -1.9912   -1.0397   13.9843 C   0  0  0  0  0  0
   -2.8280   -0.3275   13.1487 O   0  0  0  0  0  0
   -2.2468    0.6353   12.2802 C   0  0  0  0  0  0
   -3.0120    1.0837   11.6486 H   0  0  0  0  0  0
   -1.7666    1.4377   12.8438 H   0  0  0  0  0  0
   -1.5160    0.1748   11.6170 H   0  0  0  0  0  0
   -0.5984   -0.8026   14.1073 C   0  0  0  0  0  0
   -0.1515   -0.0251   13.5150 H   0  0  0  0  0  0
    2.2094    0.3558   13.6723 N   0  0  0  0  0  0
    3.1366    1.2824   13.2247 C   0  0  0  0  0  0
    2.6818    2.1823   12.1263 C   0  0  0  0  0  0
    1.3147    2.5737   12.0649 C   0  0  0  0  0  0
    0.6313    2.2309   12.8266 H   0  0  0  0  0  0
    0.8169    3.3869   11.0164 C   0  0  0  0  0  0
   -0.6322    3.7301   10.8957 C   0  0  0  0  0  0
   -1.1870    3.7239    9.7982 O   0  0  0  0  0  0
   -1.2408    4.1066   12.0223 N   0  0  0  0  0  0
   -0.6894    4.2210   12.8746 H   0  0  0  0  0  0
   -2.2073    4.3825   11.9953 H   0  0  0  0  0  0
    1.6923    3.8461   10.0174 C   0  0  0  0  0  0
    1.3393    4.4722    9.2078 H   0  0  0  0  0  0
    3.0433    3.5092   10.0723 C   0  0  0  0  0  0
    3.7004    3.8944    9.3083 H   0  0  0  0  0  0
    3.5327    2.6860   11.0987 C   0  0  0  0  0  0
    5.0017    2.4179   11.0233 C   0  0  0  0  0  0
    5.4118    2.7936   10.0861 H   0  0  0  0  0  0
    5.4560    3.0369   11.7892 H   0  0  0  0  0  0
    5.2310    1.3518   11.1455 H   0  0  0  0  0  0
    4.3797    1.3795   13.8023 C   0  0  0  0  0  0
    5.1324    2.1184   13.5765 H   0  0  0  0  0  0
  1  2  1  0  0  0
  2  7  1  0  0  0
  2  3  2  0  0  0
  3  4  1  0  0  0
  3  5  1  0  0  0
  5 50  1  0  0  0
  5  6  1  0  0  0
  6  7  2  0  0  0
  6  8  1  0  0  0
  8  9  1  0  0  0
  8 30  2  0  0  0
  9 10  1  0  0  0
  9 11  1  0  0  0
 11 28  1  0  0  0
 11 12  2  0  0  0
 12 13  1  0  0  0
 12 14  1  0  0  0
 14 15  1  0  0  0
 14 16  2  0  0  0
 16 17  1  0  0  0
 16 22  1  0  0  0
 17 18  1  0  0  0
 18 19  1  0  0  0
 18 20  1  0  0  0
 18 21  1  0  0  0
 22 23  1  0  0  0
 22 28  2  0  0  0
 23 24  1  0  0  0
 24 25  1  0  0  0
 24 26  1  0  0  0
 24 27  1  0  0  0
 28 29  1  0  0  0
 30 31  1  0  0  0
 31 32  1  0  0  0
 31 50  2  0  0  0
 32 45  1  0  0  0
 32 33  2  0  0  0
 33 34  1  0  0  0
 33 35  1  0  0  0
 35 36  1  0  0  0
 35 41  2  0  0  0
 36 37  2  0  0  0
 36 38  1  0  0  0
 38 39  1  0  0  0
 38 40  1  0  0  0
 41 42  1  0  0  0
 41 43  1  0  0  0
 43 44  1  0  0  0
 43 45  2  0  0  0
 45 46  1  0  0  0
 46 47  1  0  0  0
 46 48  1  0  0  0
 46 49  1  0  0  0
 50 51  1  0  0  0
M  END
> <s_m_source_file>
ligprep_syk.smi

> <i_m_source_file_index>
18

> <i_lp_mmshare_version>
53161

> <i_f3d_flags>
0

> <s_epik_input>
W0NIM11PYyhbY0hdMSljKE9bQ0gzXSlbY0hdW2NIXWMxW05IXWMoYyhuMjMpbltjSF1bY0hdMiluYyhbY0hdMyktYzRbY0hdYyhDKD1PKVtOSDJdKVtjSF1bY0hdYzRbQ0gzXQ==

> <s_epik_cmdline>
J2VwaWtfcHl0aG9uJywgJy1waHQnLCAnMC4wJywgJy1waCcsICc3LjQnLCAnLXRuJywgJzgnLCAnLW1hJywgJzUwMCcsICctaW1hZScsICc8aW5maWxlLm1hZT4nLCAnLW9tYWUnLCAnPG91dGZpbGUubWFlPic=

> <r_lp_tautomer_probability>
1

> <r_epik_Ionization_Penalty>
0.0009

> <r_epik_Ionization_Penalty_Charging>
0.0009

> <r_epik_Ionization_Penalty_Neutral>
0

> <r_epik_State_Penalty>
-0

> <r_epik_Charging_Adjusted_Penalty>
0.000851558

> <i_epik_Tot_Q>
0

> <i_epik_Tot_abs_Q>
0

> <s_lp_Force_Field>
S-OPLS

> <r_lp_Energy>
43.0729

> <b_lp_Chiralities_Consistent>
1

> <s_lp_Variant>
lig_CHEMBL3265011-1

> <s_i_glide_gridfile>
glide-grid_4PV0-SYK

> <i_i_glide_lignum>
18

> <i_i_glide_rotatable_bonds>
6

> <r_i_docking_score>
-8.49675

> <r_i_glide_ligand_efficiency>
-0.283225

> <r_i_glide_ligand_efficiency_sa>
-0.880046

> <r_i_glide_ligand_efficiency_ln>
-1.93055

> <r_i_glide_gscore>
-8.49675

> <r_i_glide_lipo>
-2.75673

> <r_i_glide_hbond>
-0.645867

> <r_i_glide_metal>
-0

> <r_i_glide_rewards>
-2.05633

> <r_i_glide_evdw>
-44.2096

> <r_i_glide_ecoul>
-10.0069

> <r_i_glide_erotb>
0.723773

> <r_i_glide_esite>
-0.050077

> <r_i_glide_emodel>
-91.4315

> <r_i_glide_energy>
-54.2165

> <r_i_glide_einternal>
1.47739e-08

> <i_i_glide_confnum>
1

> <i_i_glide_posenum>
1

> <r_i_glide_eff_state_penalty>
-0

> <r_i_glide_rmsd>
0.089537

> <s_glide_core_constrain_type>
snapped_core_restrain
$$$$