lig_p38a_2l
                    3D
 Schrodinger Suite 2021-1.
 49 52  0  0  1  0            999 V2000
   20.7319    7.8493   30.5953 H   0  0  0  0  0  0
   21.6074    8.4593   30.7686 C   0  0  0  0  0  0
   22.7990    7.8233   30.8292 N   0  0  0  0  0  0
   23.8652    8.5911   31.0443 C   0  0  0  0  0  0
   25.0813    7.9455   31.1445 N   0  0  0  0  0  0
   25.0914    6.9327   31.0843 H   0  0  0  0  0  0
   26.3528    8.6482   31.2717 C   0  0  0  0  0  0
   26.1914    9.5708   31.8333 H   0  0  0  0  0  0
   27.3709    7.8256   32.0682 C   0  0  0  0  0  0
   26.9692    7.5613   33.0472 H   0  0  0  0  0  0
   27.5923    6.8870   31.5549 H   0  0  0  0  0  0
   28.6482    8.6590   32.2235 C   0  0  0  0  0  0
   28.4616    9.5518   32.8229 H   0  0  0  0  0  0
   29.4189    8.0830   32.7344 H   0  0  0  0  0  0
   29.1187    9.0271   30.9355 O   0  0  0  0  0  0
   28.1750    9.7533   30.1476 C   0  0  0  0  0  0
   27.9992   10.7588   30.5375 H   0  0  0  0  0  0
   28.5203    9.8234   29.1435 H   0  0  0  0  0  0
   26.8962    8.9851   29.9176 C   0  0  0  0  0  0
   27.0937    8.0776   29.3445 H   0  0  0  0  0  0
   26.1866    9.5830   29.3449 H   0  0  0  0  0  0
   23.8628    9.9117   31.2011 N   0  0  0  0  0  0
   22.6870   10.5719   31.1855 C   0  0  0  0  0  0
   21.4966    9.8542   30.9571 C   0  0  0  0  0  0
   20.2293   10.5816   30.9801 C   0  0  0  0  0  0
   19.3313   10.0178   30.7706 H   0  0  0  0  0  0
   20.2007   11.9076   31.2491 C   0  0  0  0  0  0
   19.0561   12.6685   31.2869 O   0  0  0  0  0  0
   17.8067   12.1187   31.2183 C   0  0  0  0  0  0
   17.2822   11.3201   32.2587 C   0  0  0  0  0  0
   18.0466   11.0237   33.3353 F   0  0  0  0  0  0
   15.9625   10.8343   32.1780 C   0  0  0  0  0  0
   15.5587   10.2221   32.9698 H   0  0  0  0  0  0
   15.1791   11.1249   31.0439 C   0  0  0  0  0  0
   13.9328   10.6233   30.9347 F   0  0  0  0  0  0
   15.6940   11.9384   30.0207 C   0  0  0  0  0  0
   15.0842   12.1716   29.1612 H   0  0  0  0  0  0
   16.9978   12.4512   30.1167 C   0  0  0  0  0  0
   17.3925   13.0764   29.3294 H   0  0  0  0  0  0
   21.4330   12.6629   31.4874 C   0  0  0  0  0  0
   21.3891   13.8701   31.7346 O   0  0  0  0  0  0
   22.6112   11.9830   31.4284 N   0  0  0  0  0  0
   23.8704   12.7200   31.6831 C   0  0  0  0  0  0
   24.6948   12.3041   31.1040 H   0  0  0  0  0  0
   23.8081   13.7546   31.3461 H   0  0  0  0  0  0
   24.2374   12.7100   33.1770 C   0  0  0  0  0  0
   25.1632   13.2569   33.3500 H   0  0  0  0  0  0
   23.4654   13.1895   33.7792 H   0  0  0  0  0  0
   24.3781   11.6977   33.5512 H   0  0  0  0  0  0
  1  2  1  0  0  0
  2 24  1  0  0  0
  2  3  2  0  0  0
  3  4  1  0  0  0
  4  5  1  0  0  0
  4 22  2  0  0  0
  5  6  1  0  0  0
  5  7  1  0  0  0
  7 19  1  0  0  0
  7  8  1  0  0  0
  7  9  1  0  0  0
  9 10  1  0  0  0
  9 11  1  0  0  0
  9 12  1  0  0  0
 12 13  1  0  0  0
 12 14  1  0  0  0
 12 15  1  0  0  0
 15 16  1  0  0  0
 16 17  1  0  0  0
 16 18  1  0  0  0
 16 19  1  0  0  0
 19 20  1  0  0  0
 19 21  1  0  0  0
 22 23  1  0  0  0
 23 42  1  0  0  0
 23 24  2  0  0  0
 24 25  1  0  0  0
 25 26  1  0  0  0
 25 27  2  0  0  0
 27 28  1  0  0  0
 27 40  1  0  0  0
 28 29  1  0  0  0
 29 38  1  0  0  0
 29 30  2  0  0  0
 30 31  1  0  0  0
 30 32  1  0  0  0
 32 33  1  0  0  0
 32 34  2  0  0  0
 34 35  1  0  0  0
 34 36  1  0  0  0
 36 37  1  0  0  0
 36 38  2  0  0  0
 38 39  1  0  0  0
 40 41  2  0  0  0
 40 42  1  0  0  0
 42 43  1  0  0  0
 43 44  1  0  0  0
 43 45  1  0  0  0
 43 46  1  0  0  0
 46 47  1  0  0  0
 46 48  1  0  0  0
 46 49  1  0  0  0
M  END
> <s_m_source_file>
ligprep_p38.smi

> <i_m_source_file_index>
14

> <i_lp_mmshare_version>
53161

> <i_f3d_flags>
0

> <s_epik_input>
W0NIMl0xW0NIMl1PW0NIMl1bQ0gyXVtDSF0xW05IXWMobjIpbltjSF1jKGMyMylbY0hdYyhjKD1PKW4zW0NIMl1bQ0gzXSlPYzRjKEYpW2NIXWMoRilbY0hdW2NIXTQ=

> <s_epik_cmdline>
J2VwaWtfcHl0aG9uJywgJy1waHQnLCAnMC4wJywgJy1waCcsICc3LjQnLCAnLXRuJywgJzgnLCAnLW1hJywgJzUwMCcsICctaW1hZScsICc8aW5maWxlLm1hZT4nLCAnLW9tYWUnLCAnPG91dGZpbGUubWFlPic=

> <r_lp_tautomer_probability>
1

> <r_epik_Ionization_Penalty>
0

> <r_epik_Ionization_Penalty_Charging>
0

> <r_epik_Ionization_Penalty_Neutral>
0

> <r_epik_State_Penalty>
-0

> <r_epik_Charging_Adjusted_Penalty>
1.76676e-06

> <i_epik_Tot_Q>
0

> <i_epik_Tot_abs_Q>
0

> <s_epik_Chemistry_Notes>
This compound has an imine and may undergo hydrolysis.

> <s_lp_Force_Field>
S-OPLS

> <r_lp_Energy>
53.0161

> <b_lp_Chiralities_Consistent>
1

> <s_lp_Variant>
lig_p38a_2l-1

> <s_i_glide_gridfile>
glide-grid_3FLY-P38

> <i_i_glide_lignum>
15

> <i_i_glide_rotatable_bonds>
5

> <r_i_docking_score>
-10.6881

> <r_i_glide_ligand_efficiency>
-0.368555

> <r_i_glide_ligand_efficiency_sa>
-1.13232

> <r_i_glide_ligand_efficiency_ln>
-2.4473

> <r_i_glide_gscore>
-10.6881

> <r_i_glide_lipo>
-3.43508

> <r_i_glide_hbond>
-1.17817

> <r_i_glide_metal>
-0

> <r_i_glide_rewards>
-2.72308

> <r_i_glide_evdw>
-42.6413

> <r_i_glide_ecoul>
-12.171

> <r_i_glide_erotb>
0.605953

> <r_i_glide_esite>
0

> <r_i_glide_emodel>
-90.044

> <r_i_glide_energy>
-54.8123

> <r_i_glide_einternal>
0.362996

> <i_i_glide_confnum>
1

> <i_i_glide_posenum>
2

> <r_i_glide_eff_state_penalty>
-0

> <r_i_glide_rmsd>
0.0914281

> <s_glide_core_constrain_type>
snapped_core_restrain
$$$$