lig_CHEMBL3265031
                    3D
 Schrodinger Suite 2021-1.
 58 63  0  0  1  0            999 V2000
   -7.8593   -3.4152   15.1729 H   0  0  0  0  0  0
   -7.2276   -3.3050   14.4774 O   0  0  0  0  0  0
   -6.1551   -4.2028   14.7035 C   0  0  0  0  0  0
   -6.7738   -5.6040   14.8195 C   0  0  0  0  0  0
   -6.0076   -6.3638   14.9840 H   0  0  0  0  0  0
   -7.3179   -5.8742   13.9127 H   0  0  0  0  0  0
   -7.4748   -5.6622   15.6546 H   0  0  0  0  0  0
   -5.4245   -3.8082   16.0055 C   0  0  0  0  0  0
   -6.1125   -3.8116   16.8529 H   0  0  0  0  0  0
   -4.6647   -4.5580   16.2347 H   0  0  0  0  0  0
   -4.7445   -2.4318   15.8930 C   0  0  0  0  0  0
   -5.4995   -1.6454   15.8524 H   0  0  0  0  0  0
   -4.1511   -2.2361   16.7873 H   0  0  0  0  0  0
   -3.9258   -2.3458   14.6868 N   0  0  0  0  0  0
   -2.5457   -2.1201   14.7867 C   0  0  0  0  0  0
   -1.7481   -2.8621   15.6791 C   0  0  0  0  0  0
   -2.1825   -3.6434   16.2850 H   0  0  0  0  0  0
   -0.3696   -2.5966   15.7840 C   0  0  0  0  0  0
    0.2232   -3.1793   16.4760 H   0  0  0  0  0  0
    0.2345   -1.5741   15.0185 C   0  0  0  0  0  0
    1.6064   -1.3484   15.2432 N   0  0  0  0  0  0
    1.9994   -1.8929   16.0023 H   0  0  0  0  0  0
    2.5364   -0.4523   14.6867 C   0  0  0  0  0  0
    2.2160    0.3271   13.6933 N   0  0  0  0  0  0
    3.1402    1.2280   13.2066 C   0  0  0  0  0  0
    2.6820    2.1175   12.1259 C   0  0  0  0  0  0
    3.5814    2.5911   11.1400 C   0  0  0  0  0  0
    4.6183    2.2932   11.1632 H   0  0  0  0  0  0
    3.1534    3.4386   10.0989 C   0  0  0  0  0  0
    3.8628    3.7805    9.3607 H   0  0  0  0  0  0
    1.8018    3.8370   10.0096 C   0  0  0  0  0  0
    0.9152    3.3668   11.0133 C   0  0  0  0  0  0
    1.3351    2.5293   12.0596 C   0  0  0  0  0  0
    0.6277    2.2040   12.8074 H   0  0  0  0  0  0
   -0.3037    3.9120   10.6605 N   0  0  0  0  0  0
   -1.1700    3.7918   11.1676 H   0  0  0  0  0  0
   -0.2596    4.6685    9.5317 N   0  0  0  0  0  0
    0.9925    4.6363    9.1372 C   0  0  0  0  0  0
    1.2895    5.1727    8.2485 H   0  0  0  0  0  0
    4.4171    1.3265   13.6987 C   0  0  0  0  0  0
    5.1613    2.0455   13.3696 H   0  0  0  0  0  0
    4.7501    0.5149   14.7286 N   0  0  0  0  0  0
    3.8321   -0.4071   15.2822 C   0  0  0  0  0  0
    4.3907   -1.0487   16.3075 N   0  0  0  0  0  0
    5.6598   -0.4993   16.4448 C   0  0  0  0  0  0
    6.2977   -0.8048   17.2533 H   0  0  0  0  0  0
    5.9106    0.4184   15.4665 C   0  0  0  0  0  0
    6.7595    1.0466   15.2420 H   0  0  0  0  0  0
   -0.5705   -0.8444   14.1096 C   0  0  0  0  0  0
   -0.1783   -0.0526   13.4936 H   0  0  0  0  0  0
   -1.9451   -1.1251   13.9907 C   0  0  0  0  0  0
   -2.5384   -0.5520   13.2968 H   0  0  0  0  0  0
   -4.4896   -2.7525   13.4045 C   0  0  0  0  0  0
   -5.2149   -2.0072   13.0879 H   0  0  0  0  0  0
   -3.7183   -2.7888   12.6332 H   0  0  0  0  0  0
   -5.1729   -4.1278   13.5137 C   0  0  0  0  0  0
   -4.4036   -4.8921   13.6321 H   0  0  0  0  0  0
   -5.6911   -4.3550   12.5812 H   0  0  0  0  0  0
  1  2  1  0  0  0
  2  3  1  0  0  0
  3 56  1  0  0  0
  3  4  1  0  0  0
  3  8  1  0  0  0
  4  5  1  0  0  0
  4  6  1  0  0  0
  4  7  1  0  0  0
  8  9  1  0  0  0
  8 10  1  0  0  0
  8 11  1  0  0  0
 11 12  1  0  0  0
 11 13  1  0  0  0
 11 14  1  0  0  0
 14 15  1  0  0  0
 14 53  1  0  0  0
 15 51  1  0  0  0
 15 16  2  0  0  0
 16 17  1  0  0  0
 16 18  1  0  0  0
 18 19  1  0  0  0
 18 20  2  0  0  0
 20 21  1  0  0  0
 20 49  1  0  0  0
 21 22  1  0  0  0
 21 23  1  0  0  0
 23 43  1  0  0  0
 23 24  2  0  0  0
 24 25  1  0  0  0
 25 26  1  0  0  0
 25 40  2  0  0  0
 26 33  1  0  0  0
 26 27  2  0  0  0
 27 28  1  0  0  0
 27 29  1  0  0  0
 29 30  1  0  0  0
 29 31  2  0  0  0
 31 38  1  0  0  0
 31 32  1  0  0  0
 32 33  2  0  0  0
 32 35  1  0  0  0
 33 34  1  0  0  0
 35 36  1  0  0  0
 35 37  1  0  0  0
 37 38  2  0  0  0
 38 39  1  0  0  0
 40 41  1  0  0  0
 40 42  1  0  0  0
 42 47  1  0  0  0
 42 43  1  0  0  0
 43 44  2  0  0  0
 44 45  1  0  0  0
 45 46  1  0  0  0
 45 47  2  0  0  0
 47 48  1  0  0  0
 49 50  1  0  0  0
 49 51  2  0  0  0
 51 52  1  0  0  0
 53 54  1  0  0  0
 53 55  1  0  0  0
 53 56  1  0  0  0
 56 57  1  0  0  0
 56 58  1  0  0  0
M  END
> <s_m_source_file>
ligprep_syk.smi

> <i_m_source_file_index>
38

> <i_lp_mmshare_version>
53161

> <i_f3d_flags>
0

> <s_epik_input>
W09IXUMxKFtDSDNdKVtDSDJdW0NIMl1OKFtDSDJdW0NIMl0xKWMyW2NIXVtjSF1jKFtjSF1bY0hdMilbTkhdYyhjKG4zNCluW2NIXVtjSF00KW5jKFtjSF0zKS1jKFtjSF1bY0hdNSlbY0hdYyhjNTYpW25IXW5bY0hdNg==

> <s_epik_cmdline>
J2VwaWtfcHl0aG9uJywgJy1waHQnLCAnMC4wJywgJy1waCcsICc3LjQnLCAnLXRuJywgJzgnLCAnLW1hJywgJzUwMCcsICctaW1hZScsICc8aW5maWxlLm1hZT4nLCAnLW9tYWUnLCAnPG91dGZpbGUubWFlPic=

> <r_lp_tautomer_probability>
0.980392

> <r_epik_Ionization_Penalty>
0.2825

> <r_epik_Ionization_Penalty_Charging>
0.0009

> <r_epik_Ionization_Penalty_Neutral>
0.2817

> <r_epik_State_Penalty>
0.2743

> <r_epik_Charging_Adjusted_Penalty>
0.275153

> <i_epik_Tot_Q>
0

> <i_epik_Tot_abs_Q>
0

> <s_lp_Force_Field>
S-OPLS

> <r_lp_Energy>
51.9957

> <b_lp_Chiralities_Consistent>
1

> <s_lp_Variant>
lig_CHEMBL3265031-1

> <s_i_glide_gridfile>
glide-grid_4PV0-SYK

> <i_i_glide_lignum>
39

> <i_i_glide_rotatable_bonds>
5

> <r_i_docking_score>
-7.63868

> <r_i_glide_ligand_efficiency>
-0.231475

> <r_i_glide_ligand_efficiency_sa>
-0.742464

> <r_i_glide_ligand_efficiency_ln>
-1.6988

> <r_i_glide_gscore>
-7.91298

> <r_i_glide_lipo>
-2.81807

> <r_i_glide_hbond>
-0.294241

> <r_i_glide_metal>
-0

> <r_i_glide_rewards>
-1.82979

> <r_i_glide_evdw>
-48.2129

> <r_i_glide_ecoul>
-6.2009

> <r_i_glide_erotb>
0.413289

> <r_i_glide_esite>
-0.0433869

> <r_i_glide_emodel>
-79.2723

> <r_i_glide_energy>
-54.4138

> <r_i_glide_einternal>
2.03528

> <i_i_glide_confnum>
26

> <i_i_glide_posenum>
17

> <r_i_glide_eff_state_penalty>
0.2743

> <r_i_glide_rmsd>
0.0570589

> <s_glide_core_constrain_type>
snapped_core_restrain
$$$$