lig_17
                    3D
 Schrodinger Suite 2021-1.
 45 48  0  0  1  0            999 V2000
   11.3184   46.8348   52.2078 H   0  0  0  0  0  0
   10.5015   46.2800   51.7770 C   0  0  0  0  0  0
    9.2368   46.5014   52.1224 N   0  0  0  0  0  0
    8.5727   45.6328   51.2686 C   0  0  0  0  0  0
    7.2127   45.3251   51.0697 C   0  0  0  0  0  0
    6.2202   45.8752   51.8474 O   0  0  0  0  0  0
    4.8717   45.5671   51.4782 C   0  0  0  0  0  0
    4.7238   44.5201   51.2034 H   0  0  0  0  0  0
    4.6306   46.1640   50.5972 H   0  0  0  0  0  0
    3.8884   45.8581   52.6172 C   0  0  0  0  0  0
    4.1116   46.8362   53.0435 H   0  0  0  0  0  0
    2.4657   45.9009   52.0366 C   0  0  0  0  0  0
    2.2533   44.9766   51.4988 H   0  0  0  0  0  0
    2.3826   46.7094   51.3075 H   0  0  0  0  0  0
    1.4038   46.1010   53.1301 C   0  0  0  0  0  0
    0.4066   46.0955   52.6861 H   0  0  0  0  0  0
    1.5380   47.0829   53.5851 H   0  0  0  0  0  0
    1.5103   45.0150   54.2099 C   0  0  0  0  0  0
    1.2770   44.0409   53.7753 H   0  0  0  0  0  0
    0.7712   45.1954   54.9900 H   0  0  0  0  0  0
    2.9202   44.9821   54.8199 C   0  0  0  0  0  0
    2.9879   44.1768   55.5531 H   0  0  0  0  0  0
    3.1103   45.9090   55.3639 H   0  0  0  0  0  0
    3.9908   44.7906   53.7333 C   0  0  0  0  0  0
    4.9826   44.8135   54.1864 H   0  0  0  0  0  0
    3.8809   43.7927   53.3055 H   0  0  0  0  0  0
    6.8933   44.4244   50.1159 N   0  0  0  0  0  0
    7.8507   43.8248   49.4070 C   0  0  0  0  0  0
    7.4397   42.8118   48.5877 N   0  0  0  0  0  0
    8.1550   42.4695   47.9545 H   0  0  0  0  0  0
    6.2857   42.0183   48.5906 C   0  0  0  0  0  0
    5.6472   41.6714   49.8050 C   0  0  0  0  0  0
    6.0686   41.9823   50.7475 H   0  0  0  0  0  0
    4.4524   40.9318   49.7999 C   0  0  0  0  0  0
    3.9707   40.6859   50.7374 H   0  0  0  0  0  0
    3.8968   40.5131   48.5774 C   0  0  0  0  0  0
    2.9842   39.9406   48.5764 H   0  0  0  0  0  0
    4.5443   40.8234   47.3652 C   0  0  0  0  0  0
    3.7714   40.2771   45.7153 Br  0  0  0  0  0  0
    5.7383   41.5705   47.3737 C   0  0  0  0  0  0
    6.2224   41.8172   46.4400 H   0  0  0  0  0  0
    9.1680   44.0126   49.4585 N   0  0  0  0  0  0
    9.4762   44.9226   50.4234 C   0  0  0  0  0  0
   10.7089   45.3877   50.8053 N   0  0  0  0  0  0
   11.6272   45.1610   50.4108 H   0  0  0  0  0  0
  1  2  1  0  0  0
  2 44  1  0  0  0
  2  3  2  0  0  0
  3  4  1  0  0  0
  4 43  1  0  0  0
  4  5  2  0  0  0
  5  6  1  0  0  0
  5 27  1  0  0  0
  6  7  1  0  0  0
  7  8  1  0  0  0
  7  9  1  0  0  0
  7 10  1  0  0  0
 10 24  1  0  0  0
 10 11  1  0  0  0
 10 12  1  0  0  0
 12 13  1  0  0  0
 12 14  1  0  0  0
 12 15  1  0  0  0
 15 16  1  0  0  0
 15 17  1  0  0  0
 15 18  1  0  0  0
 18 19  1  0  0  0
 18 20  1  0  0  0
 18 21  1  0  0  0
 21 22  1  0  0  0
 21 23  1  0  0  0
 21 24  1  0  0  0
 24 25  1  0  0  0
 24 26  1  0  0  0
 27 28  2  0  0  0
 28 29  1  0  0  0
 28 42  1  0  0  0
 29 30  1  0  0  0
 29 31  1  0  0  0
 31 40  1  0  0  0
 31 32  2  0  0  0
 32 33  1  0  0  0
 32 34  1  0  0  0
 34 35  1  0  0  0
 34 36  2  0  0  0
 36 37  1  0  0  0
 36 38  1  0  0  0
 38 39  1  0  0  0
 38 40  2  0  0  0
 40 41  1  0  0  0
 42 43  2  0  0  0
 43 44  1  0  0  0
 44 45  1  0  0  0
M  END
> <s_m_source_file>
ligprep_cdk2.smi

> <i_m_source_file_index>
1

> <i_lp_mmshare_version>
53161

> <i_f3d_flags>
0

> <s_epik_input>
QnJjKFtjSF0xKVtjSF1bY0hdW2NIXWMxW05IXWMobmMoYzIzKVtuSF1bY0hdbjIpbmMzT1tDSDJdW0NIXTRbQ0gyXVtDSDJdW0NIMl1bQ0gyXVtDSDJdNA==

> <s_epik_cmdline>
J2VwaWtfcHl0aG9uJywgJy1waHQnLCAnMC4wJywgJy1waCcsICc3LjQnLCAnLXRuJywgJzgnLCAnLW1hJywgJzUwMCcsICctaW1hZScsICc8aW5maWxlLm1hZT4nLCAnLW9tYWUnLCAnPG91dGZpbGUubWFlPic=

> <r_lp_tautomer_probability>
1

> <r_epik_Ionization_Penalty>
0.0272

> <r_epik_Ionization_Penalty_Charging>
0

> <r_epik_Ionization_Penalty_Neutral>
0.0272

> <r_epik_State_Penalty>
-0

> <r_epik_Charging_Adjusted_Penalty>
0

> <i_epik_Tot_Q>
0

> <i_epik_Tot_abs_Q>
0

> <s_lp_Force_Field>
S-OPLS

> <r_lp_Energy>
26.2687

> <b_lp_Chiralities_Consistent>
1

> <s_lp_Variant>
lig_17-1

> <s_i_glide_gridfile>
glide-grid_1H1Q-CDK2

> <i_i_glide_lignum>
1

> <i_i_glide_rotatable_bonds>
5

> <r_i_docking_score>
-10.1061

> <r_i_glide_ligand_efficiency>
-0.404243

> <r_i_glide_ligand_efficiency_sa>
-1.18201

> <r_i_glide_ligand_efficiency_ln>
-2.39545

> <r_i_glide_gscore>
-10.1061

> <r_i_glide_lipo>
-2.37834

> <r_i_glide_hbond>
-1.1689

> <r_i_glide_metal>
-0

> <r_i_glide_rewards>
-2.92865

> <r_i_glide_evdw>
-40.1225

> <r_i_glide_ecoul>
-13.6563

> <r_i_glide_erotb>
0.424369

> <r_i_glide_esite>
0

> <r_i_glide_emodel>
-88.9719

> <r_i_glide_energy>
-53.7787

> <r_i_glide_einternal>
-2.52473e-07

> <i_i_glide_confnum>
1

> <i_i_glide_posenum>
1

> <r_i_glide_eff_state_penalty>
-0

> <r_i_glide_rmsd>
0.0994507

> <s_glide_core_constrain_type>
snapped_core_restrain
$$$$