lig_1a
                    3D
 Schrodinger Suite 2021-1.
 52 54  0  0  1  0            999 V2000
   22.1024  -13.2674   25.0261 C   0  0  0  0  0  0
   20.9516  -12.6526   25.5530 C   0  0  0  0  0  0
   19.6970  -13.2749   25.4116 C   0  0  0  0  0  0
   19.5825  -14.5064   24.7316 C   0  0  0  0  0  0
   20.7423  -15.1261   24.2186 C   0  0  0  0  0  0
   21.9993  -14.5043   24.3628 C   0  0  0  0  0  0
   18.2173  -15.1584   24.5483 C   0  0  0  0  0  0
   17.6595  -15.1602   23.1012 C   0  0  2  0  0  0
   17.4202  -13.7345   22.5720 C   0  0  0  0  0  0
   16.4683  -13.1187   23.0480 O   0  0  0  0  0  0
   18.2155  -13.1997   21.6129 N   0  0  0  0  0  0
   19.4221  -13.8285   21.0745 C   0  0  0  0  0  0
   20.1172  -12.7778   20.2155 C   0  0  0  0  0  0
   19.0496  -11.7500   19.8900 C   0  0  0  0  0  0
   17.9930  -11.8725   21.0004 C   0  0  1  0  0  0
   16.5767  -11.6926   20.4066 C   0  0  0  0  0  0
   16.0660  -12.5950   19.7411 O   0  0  0  0  0  0
   15.9575  -10.5316   20.6513 N   0  0  0  0  0  0
   14.6106  -10.1768   20.2207 C   0  0  0  0  0  0
   13.5364  -10.4851   21.2471 C   0  0  0  0  0  0
   12.8685  -11.7273   21.2340 C   0  0  0  0  0  0
   11.8428  -11.9848   22.1675 C   0  0  0  0  0  0
   11.4767  -11.0000   23.1046 C   0  0  0  0  0  0
   12.1664   -9.7745   23.1425 C   0  0  0  0  0  0
   13.1920   -9.5160   22.2130 C   0  0  0  0  0  0
   11.8536   -8.8484   24.0793 F   0  0  0  0  0  0
   16.3663  -15.8713   23.0527 N   0  3  0  0  0  0
   18.3373  -15.7139   22.4554 H   0  0  0  0  0  0
   18.1776  -11.1175   21.7664 H   0  0  0  0  0  0
   16.0402  -15.8743   22.0916 H   0  0  0  0  0  0
   16.4572  -16.8182   23.3892 H   0  0  0  0  0  0
   23.0661  -12.7942   25.1366 H   0  0  0  0  0  0
   21.0282  -11.7109   26.0771 H   0  0  0  0  0  0
   18.8216  -12.8012   25.8323 H   0  0  0  0  0  0
   20.6745  -16.0741   23.7036 H   0  0  0  0  0  0
   22.8858  -14.9793   23.9692 H   0  0  0  0  0  0
   18.3008  -16.1869   24.9045 H   0  0  0  0  0  0
   17.5026  -14.6677   25.2132 H   0  0  0  0  0  0
   20.0936  -14.1839   21.8513 H   0  0  0  0  0  0
   19.1337  -14.6805   20.4564 H   0  0  0  0  0  0
   20.9085  -12.3035   20.7999 H   0  0  0  0  0  0
   20.5848  -13.2039   19.3274 H   0  0  0  0  0  0
   19.4684  -10.7446   19.8514 H   0  0  0  0  0  0
   18.6344  -11.9725   18.9047 H   0  0  0  0  0  0
   16.4679   -9.8309   21.1839 H   0  0  0  0  0  0
   14.5932   -9.1044   20.0353 H   0  0  0  0  0  0
   14.3622  -10.6514   19.2687 H   0  0  0  0  0  0
   13.1322  -12.4823   20.5068 H   0  0  0  0  0  0
   11.3254  -12.9320   22.1612 H   0  0  0  0  0  0
   10.6832  -11.1935   23.8136 H   0  0  0  0  0  0
   13.7134   -8.5709   22.2463 H   0  0  0  0  0  0
   15.6843  -15.3608   23.6038 H   0  0  0  0  0  0
  1  6  1  0  0  0
  1  2  2  0  0  0
  1 32  1  0  0  0
  2  3  1  0  0  0
  2 33  1  0  0  0
  3  4  2  0  0  0
  3 34  1  0  0  0
  4  5  1  0  0  0
  4  7  1  0  0  0
  5  6  2  0  0  0
  5 35  1  0  0  0
  6 36  1  0  0  0
  7  8  1  0  0  0
  7 37  1  0  0  0
  7 38  1  0  0  0
  8 28  1  0  0  0
  8  9  1  0  0  0
  8 27  1  0  0  0
  9 10  2  0  0  0
  9 11  1  0  0  0
 11 15  1  0  0  0
 11 12  1  0  0  0
 12 13  1  0  0  0
 12 39  1  0  0  0
 12 40  1  0  0  0
 13 14  1  0  0  0
 13 41  1  0  0  0
 13 42  1  0  0  0
 14 15  1  0  0  0
 14 43  1  0  0  0
 14 44  1  0  0  0
 15 29  1  0  0  0
 15 16  1  0  0  0
 16 17  2  0  0  0
 16 18  1  0  0  0
 18 19  1  0  0  0
 18 45  1  0  0  0
 19 20  1  0  0  0
 19 46  1  0  0  0
 19 47  1  0  0  0
 20 25  1  0  0  0
 20 21  2  0  0  0
 21 22  1  0  0  0
 21 48  1  0  0  0
 22 23  2  0  0  0
 22 49  1  0  0  0
 23 24  1  0  0  0
 23 50  1  0  0  0
 24 25  2  0  0  0
 24 26  1  0  0  0
 25 51  1  0  0  0
 27 30  1  0  0  0
 27 31  1  0  0  0
 27 52  1  0  0  0
M  CHG  1  27   1
M  END
> <s_m_source_file>
ligprep_thrombin.smi

> <i_m_source_file_index>
1

> <i_lp_mmshare_version>
53161

> <i_f3d_flags>
0

> <s_epik_input>
W2NIXTFbY0hdW2NIXVtjSF1bY0hdYzFbQ0gyXVtDQEBIXShbTkgyXSlDKD1PKU4yW0NIMl1bQ0gyXVtDSDJdW0NASF0yQyg9TylbTkhdW0NIMl1jM1tjSF1bY0hdW2NIXWMoRilbY0hdMw==

> <s_epik_cmdline>
J2VwaWtfcHl0aG9uJywgJy1waHQnLCAnMC4wJywgJy1waCcsICc3LjQnLCAnLXRuJywgJzgnLCAnLW1hJywgJzUwMCcsICctaW1hZScsICc8aW5maWxlLm1hZT4nLCAnLW9tYWUnLCAnPG91dGZpbGUubWFlPic=

> <r_epik_Ionization_Penalty>
0.3822

> <r_epik_Ionization_Penalty_Charging>
0.3822

> <r_epik_Ionization_Penalty_Neutral>
0

> <r_epik_State_Penalty>
0.3803

> <r_epik_Charging_Adjusted_Penalty>
0.762511

> <i_epik_Tot_Q>
1

> <i_epik_Tot_abs_Q>
1

> <s_lp_Force_Field>
S-OPLS

> <r_lp_Energy>
38.8295

> <b_lp_Chiralities_Consistent>
1

> <s_lp_Variant>
lig_1a-1

> <s_i_glide_gridfile>
glide-grid_2ZFF-Thrombin

> <i_i_glide_lignum>
1

> <i_i_glide_rotatable_bonds>
8

> <r_i_docking_score>
-10.8551

> <r_i_glide_ligand_efficiency>
-0.402043

> <r_i_glide_ligand_efficiency_sa>
-1.20613

> <r_i_glide_ligand_efficiency_ln>
-2.5269

> <r_i_glide_gscore>
-11.2354

> <r_i_glide_lipo>
-4.69002

> <r_i_glide_hbond>
-0.864

> <r_i_glide_metal>
-0

> <r_i_glide_rewards>
-1.92431

> <r_i_glide_evdw>
-46.7923

> <r_i_glide_ecoul>
-16.7404

> <r_i_glide_erotb>
1.12469

> <r_i_glide_esite>
-0.0311331

> <r_i_glide_emodel>
-116.051

> <r_i_glide_energy>
-63.5326

> <r_i_glide_einternal>
2.40175e-07

> <i_i_glide_confnum>
6

> <i_i_glide_posenum>
8

> <r_i_glide_eff_state_penalty>
0.3803

> <r_i_glide_rmsd>
0.0799196

> <s_glide_core_constrain_type>
snapped_core_restrain
$$$$