lig_13
                    3D
 Schrodinger Suite 2021-1.
 47 50  0  0  1  0            999 V2000
   -7.5675   11.7369  -15.0257 H   0  0  0  0  0  0
   -6.9692   12.1381  -14.4126 O   0  0  0  0  0  0
   -7.0748   11.6593  -13.1362 C   0  0  0  0  0  0
   -6.4591   12.3159  -12.0347 C   0  0  0  0  0  0
   -5.6498   13.5826  -12.2144 C   0  0  0  0  0  0
   -6.0904   14.5060  -12.9027 O   0  0  0  0  0  0
   -4.4507   13.6685  -11.5882 N   0  0  0  0  0  0
   -3.5994   14.8599  -11.6616 C   0  0  0  0  0  0
   -4.0552   15.7197  -11.1682 H   0  0  0  0  0  0
   -3.4280   15.1331  -12.7037 H   0  0  0  0  0  0
   -2.2759   14.4926  -10.9845 C   0  0  0  0  0  0
   -2.2938   14.8304   -9.9455 H   0  0  0  0  0  0
   -1.4146   14.9618  -11.4661 H   0  0  0  0  0  0
   -2.2442   12.9713  -11.0146 C   0  0  2  0  0  0
   -1.6827   12.5466  -10.1805 H   0  0  0  0  0  0
   -1.7144   12.5082  -12.2340 O   0  0  0  0  0  0
   -0.8317   12.8480  -12.3350 H   0  0  0  0  0  0
   -3.7109   12.5617  -10.9741 C   0  0  0  0  0  0
   -3.8800   11.5970  -11.4540 H   0  0  0  0  0  0
   -4.0145   12.4782   -9.9301 H   0  0  0  0  0  0
   -6.6379   11.7845  -10.7326 C   0  0  0  0  0  0
   -6.2174   12.3028   -9.8855 H   0  0  0  0  0  0
   -7.2912   10.5570  -10.5059 C   0  0  0  0  0  0
   -7.5640    9.7052   -9.3792 C   0  0  0  0  0  0
   -7.2425    9.9395   -7.9285 C   0  0  0  0  0  0
   -8.0015   10.5842   -7.4830 H   0  0  0  0  0  0
   -7.2927    9.0028   -7.3696 H   0  0  0  0  0  0
   -5.8669   10.5454   -7.7014 C   0  0  0  0  0  0
   -4.7142    9.8366   -8.1010 C   0  0  0  0  0  0
   -4.8078    8.8664   -8.5741 H   0  0  0  0  0  0
   -3.4359   10.3854   -7.8765 C   0  0  0  0  0  0
   -2.5544    9.8387   -8.1827 H   0  0  0  0  0  0
   -3.3041   11.6528   -7.2761 C   0  0  0  0  0  0
   -2.3161   12.0693   -7.1282 H   0  0  0  0  0  0
   -4.4543   12.3705   -6.8867 C   0  0  0  0  0  0
   -4.3203   13.7386   -6.2570 C   0  0  0  0  0  0
   -4.2737   13.6604   -5.1707 H   0  0  0  0  0  0
   -3.4235   14.2511   -6.6082 H   0  0  0  0  0  0
   -5.1812   14.3469   -6.5226 H   0  0  0  0  0  0
   -5.7327   11.8128   -7.0940 C   0  0  0  0  0  0
   -6.6100   12.3636   -6.7952 H   0  0  0  0  0  0
   -8.1638    8.6066   -9.7696 N   0  0  0  0  0  0
   -8.3790    8.7414  -11.1047 N   0  0  0  0  0  0
   -8.8858    8.0232  -11.6134 H   0  0  0  0  0  0
   -7.8552    9.9080  -11.6333 C   0  0  0  0  0  0
   -7.7961   10.4627  -12.9260 C   0  0  0  0  0  0
   -8.2653    9.9440  -13.7484 H   0  0  0  0  0  0
  1  2  1  0  0  0
  2  3  1  0  0  0
  3 46  1  0  0  0
  3  4  2  0  0  0
  4  5  1  0  0  0
  4 21  1  0  0  0
  5  6  2  0  0  0
  5  7  1  0  0  0
  7 18  1  0  0  0
  7  8  1  0  0  0
  8  9  1  0  0  0
  8 10  1  0  0  0
  8 11  1  0  0  0
 11 12  1  0  0  0
 11 13  1  0  0  0
 11 14  1  0  0  0
 14 15  1  0  0  0
 14 16  1  0  0  0
 14 18  1  0  0  0
 16 17  1  0  0  0
 18 19  1  0  0  0
 18 20  1  0  0  0
 21 22  1  0  0  0
 21 23  2  0  0  0
 23 45  1  0  0  0
 23 24  1  0  0  0
 24 25  1  0  0  0
 24 42  2  0  0  0
 25 26  1  0  0  0
 25 27  1  0  0  0
 25 28  1  0  0  0
 28 40  1  0  0  0
 28 29  2  0  0  0
 29 30  1  0  0  0
 29 31  1  0  0  0
 31 32  1  0  0  0
 31 33  2  0  0  0
 33 34  1  0  0  0
 33 35  1  0  0  0
 35 36  1  0  0  0
 35 40  2  0  0  0
 36 37  1  0  0  0
 36 38  1  0  0  0
 36 39  1  0  0  0
 40 41  1  0  0  0
 42 43  1  0  0  0
 43 44  1  0  0  0
 43 45  1  0  0  0
 45 46  2  0  0  0
 46 47  1  0  0  0
M  END
> <s_m_source_file>
ligprep_cdk8.smi

> <i_m_source_file_index>
1

> <i_lp_mmshare_version>
53161

> <i_f3d_flags>
0

> <s_epik_input>
W09IXVtDQEhdKFtDSDJdMSlbQ0gyXVtDSDJdTjFDKD1PKWMoW2NIXTIpYyhbT0hdKVtjSF1jKGMyMylbbkhdbmMzW0NIMl1jNFtjSF1bY0hdW2NIXWMoW0NIM10pW2NIXTQ=

> <s_epik_cmdline>
J2VwaWtfcHl0aG9uJywgJy1waHQnLCAnMC4wJywgJy1waCcsICc3LjQnLCAnLXRuJywgJzgnLCAnLW1hJywgJzUwMCcsICctaW1hZScsICc8aW5maWxlLm1hZT4nLCAnLW9tYWUnLCAnPG91dGZpbGUubWFlPic=

> <r_epik_Ionization_Penalty>
0.2111

> <r_epik_Ionization_Penalty_Charging>
0

> <r_epik_Ionization_Penalty_Neutral>
0.2111

> <r_epik_State_Penalty>
0.2012

> <r_epik_Charging_Adjusted_Penalty>
0.201229

> <i_epik_Tot_Q>
0

> <i_epik_Tot_abs_Q>
0

> <s_lp_Force_Field>
S-OPLS

> <r_lp_Energy>
28.3853

> <b_lp_Chiralities_Consistent>
1

> <s_lp_Variant>
lig_13-1

> <s_i_glide_gridfile>
glide-grid_5HNB-CDK8

> <i_i_glide_lignum>
1

> <i_i_glide_rotatable_bonds>
6

> <r_i_docking_score>
-10.1776

> <r_i_glide_ligand_efficiency>
-0.391446

> <r_i_glide_ligand_efficiency_sa>
-1.15966

> <r_i_glide_ligand_efficiency_ln>
-2.39017

> <r_i_glide_gscore>
-10.3788

> <r_i_glide_lipo>
-4.02168

> <r_i_glide_hbond>
-0.81404

> <r_i_glide_metal>
-0

> <r_i_glide_rewards>
-2.50239

> <r_i_glide_evdw>
-46.0604

> <r_i_glide_ecoul>
-9.24249

> <r_i_glide_erotb>
0.648715

> <r_i_glide_esite>
0

> <r_i_glide_emodel>
-91.0051

> <r_i_glide_energy>
-55.3029

> <r_i_glide_einternal>
0.396959

> <i_i_glide_confnum>
2

> <i_i_glide_posenum>
11

> <r_i_glide_eff_state_penalty>
0.2012

> <r_i_glide_rmsd>
0.0464245

> <s_glide_core_constrain_type>
snapped_core_restrain
$$$$