lig_CAT-13f
                    3D
 Schrodinger Suite 2021-1.
 48 51  0  0  1  0            999 V2000
   29.7186    9.3607   21.8018 H   0  0  0  0  0  0
   29.2037   10.2077   21.3758 C   0  0  0  0  0  0
   27.8845   10.0599   20.9083 C   0  0  0  0  0  0
   27.3941    9.1049   21.0050 H   0  0  0  0  0  0
   27.2103   11.1494   20.3160 C   0  0  0  0  0  0
   25.8153   11.0610   19.8611 C   0  0  0  0  0  0
   24.7607   10.9277   20.7895 C   0  0  0  0  0  0
   25.0045   10.8431   21.8373 H   0  0  0  0  0  0
   23.3998   10.9523   20.3892 C   0  0  0  0  0  0
   22.2729   10.8636   21.4502 C   0  0  2  0  0  0
   20.8115   10.8158   20.8661 C   0  0  0  0  0  0
   20.7956   10.0420   20.0978 H   0  0  0  0  0  0
   19.7050   10.4155   21.8791 C   0  0  0  0  0  0
   20.0110   10.6035   22.9069 H   0  0  0  0  0  0
   19.4573    9.3572   21.8015 H   0  0  0  0  0  0
   18.5047   11.3088   21.5842 C   0  0  0  0  0  0
   17.8605   11.4482   22.4532 H   0  0  0  0  0  0
   17.9021   10.8806   20.7803 H   0  0  0  0  0  0
   19.1501   12.6052   21.1181 C   0  0  0  0  0  0
   19.5439   13.1557   21.9761 H   0  0  0  0  0  0
   18.4544   13.2584   20.6012 H   0  0  0  0  0  0
   20.2981   12.1316   20.2269 C   0  0  0  0  0  0
   19.9044   11.9171   19.2326 H   0  0  0  0  0  0
   21.0655   12.8962   20.0979 H   0  0  0  0  0  0
   22.4630   11.9727   22.5109 C   0  0  0  0  0  0
   22.4218   13.1818   22.2750 O   0  0  0  0  0  0
   22.7133   11.4094   23.6868 N   0  0  0  0  0  0
   23.0994   12.0835   24.9229 C   0  0  0  0  0  0
   24.1885   12.1009   25.0020 H   0  0  0  0  0  0
   22.7526   13.1173   24.9348 H   0  0  0  0  0  0
   22.6838   11.5930   25.8042 H   0  0  0  0  0  0
   22.7144   10.0461   23.5067 C   0  0  0  0  0  0
   22.9385    9.2391   24.6017 N   0  0  0  0  0  0
   22.9942    8.2286   24.5026 H   0  0  0  0  0  0
   22.4934    9.6848   22.2896 N   0  0  0  0  0  0
   23.1234   11.0644   19.0040 C   0  0  0  0  0  0
   22.1137   11.0758   18.6259 H   0  0  0  0  0  0
   24.1644   11.1804   18.0661 C   0  0  0  0  0  0
   23.9329   11.2769   17.0152 H   0  0  0  0  0  0
   25.5017   11.1904   18.4953 C   0  0  0  0  0  0
   26.2934   11.3102   17.7701 H   0  0  0  0  0  0
   27.8834   12.3851   20.2014 C   0  0  0  0  0  0
   27.3774   13.2300   19.7551 H   0  0  0  0  0  0
   29.1950   12.5412   20.6843 C   0  0  0  0  0  0
   29.9778   14.0735   20.5667 Cl  0  0  0  0  0  0
   29.8590   11.4492   21.2701 C   0  0  0  0  0  0
   30.8702   11.5630   21.6323 H   0  0  0  0  0  0
   23.0606    9.5401   25.5634 H   0  0  0  0  0  0
  1  2  1  0  0  0
  2 46  1  0  0  0
  2  3  2  0  0  0
  3  4  1  0  0  0
  3  5  1  0  0  0
  5  6  1  0  0  0
  5 42  2  0  0  0
  6 40  1  0  0  0
  6  7  2  0  0  0
  7  8  1  0  0  0
  7  9  1  0  0  0
  9 36  2  0  0  0
  9 10  1  0  0  0
 10 35  1  0  0  0
 10 25  1  0  0  0
 10 11  1  0  0  0
 11 22  1  0  0  0
 11 12  1  0  0  0
 11 13  1  0  0  0
 13 14  1  0  0  0
 13 15  1  0  0  0
 13 16  1  0  0  0
 16 17  1  0  0  0
 16 18  1  0  0  0
 16 19  1  0  0  0
 19 20  1  0  0  0
 19 21  1  0  0  0
 19 22  1  0  0  0
 22 23  1  0  0  0
 22 24  1  0  0  0
 25 26  2  0  0  0
 25 27  1  0  0  0
 27 28  1  0  0  0
 27 32  1  0  0  0
 28 29  1  0  0  0
 28 30  1  0  0  0
 28 31  1  0  0  0
 32 33  1  0  0  0
 32 35  2  0  0  0
 33 34  1  0  0  0
 33 48  1  0  0  0
 36 37  1  0  0  0
 36 38  1  0  0  0
 38 39  1  0  0  0
 38 40  2  0  0  0
 40 41  1  0  0  0
 42 43  1  0  0  0
 42 44  1  0  0  0
 44 45  1  0  0  0
 44 46  2  0  0  0
 46 47  1  0  0  0
M  END
> <s_m_source_file>
ligprep_bace.smi

> <i_m_source_file_index>
6

> <i_lp_mmshare_version>
53161

> <i_f3d_flags>
0

> <s_epik_input>
W2NIXTFjKENsKVtjSF1bY0hdW2NIXWMxLWMyW2NIXWMoW2NIXVtjSF1bY0hdMilbQ0BAXTMoQyg9TylOKFtDSDNdKUMoPU4zKVtOSDJdKVtDSF00W0NIMl1bQ0gyXVtDSDJdW0NIMl00

> <s_epik_cmdline>
J2VwaWtfcHl0aG9uJywgJy1waHQnLCAnMC4wJywgJy1waCcsICc3LjQnLCAnLXRuJywgJzgnLCAnLW1hJywgJzUwMCcsICctaW1hZScsICc8aW5maWxlLm1hZT4nLCAnLW9tYWUnLCAnPG91dGZpbGUubWFlPic=

> <r_lp_tautomer_probability>
1

> <r_epik_Ionization_Penalty>
1.3621

> <r_epik_Ionization_Penalty_Charging>
0

> <r_epik_Ionization_Penalty_Neutral>
1.3621

> <r_epik_State_Penalty>
-0

> <r_epik_Charging_Adjusted_Penalty>
0

> <i_epik_Tot_Q>
0

> <i_epik_Tot_abs_Q>
0

> <s_epik_Chemistry_Notes>
This compound has an imine and may undergo hydrolysis.

> <s_lp_Force_Field>
S-OPLS

> <r_lp_Energy>
36.3434

> <b_lp_Chiralities_Consistent>
1

> <s_lp_Variant>
lig_CAT-13f-1

> <s_i_glide_gridfile>
glide-grid_4DJW-BACE

> <i_i_glide_lignum>
6

> <i_i_glide_rotatable_bonds>
3

> <r_i_docking_score>
-5.8224

> <r_i_glide_ligand_efficiency>
-0.223938

> <r_i_glide_ligand_efficiency_sa>
-0.663416

> <r_i_glide_ligand_efficiency_ln>
-1.36737

> <r_i_glide_gscore>
-5.8224

> <r_i_glide_lipo>
-2.65791

> <r_i_glide_hbond>
-0.173967

> <r_i_glide_metal>
-0

> <r_i_glide_rewards>
-1.09117

> <r_i_glide_evdw>
-38.0052

> <r_i_glide_ecoul>
-2.04165

> <r_i_glide_erotb>
0.427036

> <r_i_glide_esite>
-0.119873

> <r_i_glide_emodel>
-49.7174

> <r_i_glide_energy>
-40.0469

> <r_i_glide_einternal>
2.85874

> <i_i_glide_confnum>
146

> <i_i_glide_posenum>
12

> <r_i_glide_eff_state_penalty>
-0

> <r_i_glide_rmsd>
0.0940992

> <s_glide_core_constrain_type>
snapped_core_restrain
$$$$