lig_31_L
                    3D
 Schrodinger Suite 2021-1.
 58 61  0  0  1  0            999 V2000
   11.3143   -4.6098   13.7268 H   0  0  0  0  0  0
   10.5205   -4.1929   14.3266 C   0  0  0  0  0  0
   10.0401   -3.0089   13.8872 N   0  0  0  0  0  0
    9.0719   -2.4154   14.6116 C   0  0  0  0  0  0
    8.6976   -1.4743   14.2352 H   0  0  0  0  0  0
    8.5548   -2.9648   15.7970 C   0  0  0  0  0  0
    7.7788   -2.4509   16.3462 H   0  0  0  0  0  0
    9.0721   -4.1939   16.2457 C   0  0  0  0  0  0
    8.6996   -4.6306   17.1609 H   0  0  0  0  0  0
   10.0819   -4.8399   15.5031 C   0  0  0  0  0  0
   10.6809   -6.1004   15.9768 C   0  0  0  0  0  0
   12.0832   -6.2369   16.0424 C   0  0  0  0  0  0
   12.6991   -5.4160   15.7030 H   0  0  0  0  0  0
   12.6980   -7.3751   16.6214 C   0  0  0  0  0  0
   14.2262   -7.4010   16.8125 C   0  0  2  0  0  0
   14.8574   -8.7616   17.1990 C   0  0  0  0  0  0
   15.7600   -8.8767   18.2895 C   0  0  0  0  0  0
   15.9926   -8.0476   18.9390 H   0  0  0  0  0  0
   16.4387  -10.0735   18.5539 C   0  0  0  0  0  0
   17.1261  -10.1010   19.3859 H   0  0  0  0  0  0
   16.2288  -11.2068   17.7442 C   0  0  0  0  0  0
   16.9133  -12.3804   17.9571 O   0  0  0  0  0  0
   18.2587  -12.2422   18.4021 C   0  0  0  0  0  0
   18.8035  -13.1623   18.1923 H   0  0  0  0  0  0
   18.7808  -11.4345   17.8870 H   0  0  0  0  0  0
   18.3040  -12.0679   19.4779 H   0  0  0  0  0  0
   15.2870  -11.1322   16.6905 C   0  0  0  0  0  0
   14.9825  -12.2336   15.9304 O   0  0  0  0  0  0
   16.0645  -12.7944   15.1995 C   0  0  0  0  0  0
   16.1182  -13.8665   15.3826 H   0  0  0  0  0  0
   17.0314  -12.3757   15.4805 H   0  0  0  0  0  0
   15.8336  -12.5015   13.7225 C   0  0  0  0  0  0
   16.7754  -12.6092   13.1849 H   0  0  0  0  0  0
   15.4719  -11.4774   13.6102 H   0  0  0  0  0  0
   14.8225  -13.4092   13.0620 C   0  0  0  0  0  0
   14.6676  -13.0837   12.0345 H   0  0  0  0  0  0
   13.8785  -13.4076   13.6043 H   0  0  0  0  0  0
   15.2086  -14.4240   13.0152 H   0  0  0  0  0  0
   14.6300   -9.9133   16.4132 C   0  0  0  0  0  0
   13.9526   -9.8493   15.5755 H   0  0  0  0  0  0
   14.6003   -6.2635   17.7914 C   0  0  0  0  0  0
   14.1386   -6.1394   18.9284 O   0  0  0  0  0  0
   15.4943   -5.4735   17.2129 N   0  0  0  0  0  0
   16.1364   -4.2847   17.7626 C   0  0  0  0  0  0
   17.2215   -4.3456   17.6668 H   0  0  0  0  0  0
   15.7897   -3.4091   17.2191 H   0  0  0  0  0  0
   15.8991   -4.1491   18.8182 H   0  0  0  0  0  0
   15.6518   -5.9075   15.9201 C   0  0  0  0  0  0
   16.5126   -5.2065   15.1082 N   0  0  0  0  0  0
   16.5631   -5.3908   14.1078 H   0  0  0  0  0  0
   14.9341   -6.9342   15.6232 N   0  0  0  0  0  0
   11.8708   -8.4174   17.0975 C   0  0  0  0  0  0
   12.2892   -9.2937   17.5684 H   0  0  0  0  0  0
   10.4731   -8.3240   16.9787 C   0  0  0  0  0  0
    9.8565   -9.1331   17.3400 H   0  0  0  0  0  0
    9.8807   -7.1680   16.4371 C   0  0  0  0  0  0
    8.8034   -7.0997   16.3950 H   0  0  0  0  0  0
   16.9763   -4.3330   15.3390 H   0  0  0  0  0  0
  1  2  1  0  0  0
  2 10  1  0  0  0
  2  3  2  0  0  0
  3  4  1  0  0  0
  4  5  1  0  0  0
  4  6  2  0  0  0
  6  7  1  0  0  0
  6  8  1  0  0  0
  8  9  1  0  0  0
  8 10  2  0  0  0
 10 11  1  0  0  0
 11 56  1  0  0  0
 11 12  2  0  0  0
 12 13  1  0  0  0
 12 14  1  0  0  0
 14 52  2  0  0  0
 14 15  1  0  0  0
 15 51  1  0  0  0
 15 41  1  0  0  0
 15 16  1  0  0  0
 16 39  1  0  0  0
 16 17  2  0  0  0
 17 18  1  0  0  0
 17 19  1  0  0  0
 19 20  1  0  0  0
 19 21  2  0  0  0
 21 22  1  0  0  0
 21 27  1  0  0  0
 22 23  1  0  0  0
 23 24  1  0  0  0
 23 25  1  0  0  0
 23 26  1  0  0  0
 27 28  1  0  0  0
 27 39  2  0  0  0
 28 29  1  0  0  0
 29 30  1  0  0  0
 29 31  1  0  0  0
 29 32  1  0  0  0
 32 33  1  0  0  0
 32 34  1  0  0  0
 32 35  1  0  0  0
 35 36  1  0  0  0
 35 37  1  0  0  0
 35 38  1  0  0  0
 39 40  1  0  0  0
 41 42  2  0  0  0
 41 43  1  0  0  0
 43 44  1  0  0  0
 43 48  1  0  0  0
 44 45  1  0  0  0
 44 46  1  0  0  0
 44 47  1  0  0  0
 48 49  1  0  0  0
 48 51  2  0  0  0
 49 50  1  0  0  0
 49 58  1  0  0  0
 52 53  1  0  0  0
 52 54  1  0  0  0
 54 55  1  0  0  0
 54 56  2  0  0  0
 56 57  1  0  0  0
M  END
> <s_m_source_file>
ligprep_bace_p2.smi

> <i_m_source_file_index>
4

> <i_lp_mmshare_version>
53161

> <i_f3d_flags>
0

> <s_epik_input>
W2NIXTFbY0hdW2NIXW5bY0hdYzEtYzJbY0hdYyhbY0hdW2NIXVtjSF0yKVtDQEBdMyhDKD1PKU4oW0NIM10pQyg9TjMpW05IMl0pYzRbY0hdW2NIXWMoT1tDSDNdKWMoW2NIXTQpT1tDSDJdW0NIMl1bQ0gzXQ==

> <s_epik_cmdline>
J2VwaWtfcHl0aG9uJywgJy1waHQnLCAnMC4wJywgJy1waCcsICc3LjQnLCAnLXRuJywgJzgnLCAnLW1hJywgJzUwMCcsICctaW1hZScsICc8aW5maWxlLm1hZT4nLCAnLW9tYWUnLCAnPG91dGZpbGUubWFlPic=

> <r_lp_tautomer_probability>
1

> <r_epik_Ionization_Penalty>
0.779

> <r_epik_Ionization_Penalty_Charging>
0

> <r_epik_Ionization_Penalty_Neutral>
0.779

> <r_epik_State_Penalty>
-0

> <r_epik_Charging_Adjusted_Penalty>
0

> <i_epik_Tot_Q>
0

> <i_epik_Tot_abs_Q>
0

> <s_epik_Chemistry_Notes>
This compound has an imine and may undergo hydrolysis.

> <s_lp_Force_Field>
S-OPLS

> <r_lp_Energy>
57.8091

> <b_lp_Chiralities_Consistent>
1

> <s_lp_Variant>
lig_31_L-1

> <s_i_glide_gridfile>
glide-grid_3IN4-BACE_P2

> <i_i_glide_lignum>
4

> <i_i_glide_rotatable_bonds>
7

> <r_i_docking_score>
-6.81966

> <r_i_glide_ligand_efficiency>
-0.213114

> <r_i_glide_ligand_efficiency_sa>
-0.676596

> <r_i_glide_ligand_efficiency_ln>
-1.52711

> <r_i_glide_gscore>
-6.81966

> <r_i_glide_lipo>
-2.20656

> <r_i_glide_hbond>
-0.94537

> <r_i_glide_metal>
-0

> <r_i_glide_rewards>
-0.473871

> <r_i_glide_evdw>
-43.1101

> <r_i_glide_ecoul>
-10.2961

> <r_i_glide_erotb>
0.643666

> <r_i_glide_esite>
-0.137605

> <r_i_glide_emodel>
-64.9326

> <r_i_glide_energy>
-53.4062

> <r_i_glide_einternal>
15.3397

> <i_i_glide_confnum>
186

> <i_i_glide_posenum>
138

> <r_i_glide_eff_state_penalty>
-0

> <r_i_glide_rmsd>
0.0987214

> <s_glide_core_constrain_type>
snapped_core_restrain
$$$$