lig_59
                    3D
 Schrodinger Suite 2021-1.
 49 53  0  0  1  0            999 V2000
   96.7195   45.9177  267.0710 H   0  0  0  0  0  0
   96.0027   46.7139  267.2137 C   0  0  0  0  0  0
   94.7377   46.4864  266.8136 N   0  0  0  0  0  0
   93.8374   47.4881  266.9640 C   0  0  0  0  0  0
   94.2154   48.7303  267.5598 C   0  0  0  0  0  0
   95.4829   48.9132  268.0136 N   0  0  0  0  0  0
   96.3762   47.9299  267.8178 C   0  0  0  0  0  0
   97.3872   48.1075  268.1465 H   0  0  0  0  0  0
   93.2531   49.7575  267.6776 C   0  0  0  0  0  0
   93.5782   51.0486  268.2932 C   0  0  0  0  0  0
   94.5577   51.9032  267.7439 C   0  0  0  0  0  0
   95.0980   51.6103  266.8569 H   0  0  0  0  0  0
   94.8267   53.1504  268.3365 C   0  0  0  0  0  0
   95.5729   53.8052  267.9092 H   0  0  0  0  0  0
   94.1120   53.5505  269.4788 C   0  0  0  0  0  0
   94.3720   54.7819  270.0276 O   0  0  0  0  0  0
   93.9670   54.9070  271.3802 C   0  0  0  0  0  0
   94.6583   54.3740  272.0319 H   0  0  0  0  0  0
   93.9802   55.9594  271.6572 H   0  0  0  0  0  0
   92.5453   54.3817  271.5253 C   0  0  0  0  0  0
   92.1562   54.5432  272.5304 H   0  0  0  0  0  0
   91.9432   54.9575  270.8337 H   0  0  0  0  0  0
   92.4688   53.0087  271.1962 O   0  0  0  0  0  0
   93.1551   52.6779  270.0567 C   0  0  0  0  0  0
   92.8921   51.4394  269.4559 C   0  0  0  0  0  0
   92.1497   50.7913  269.8933 H   0  0  0  0  0  0
   91.9297   49.5395  267.2408 C   0  0  0  0  0  0
   91.1969   50.3257  267.3613 H   0  0  0  0  0  0
   91.5450   48.3175  266.6691 C   0  0  0  0  0  0
   90.2020   48.1378  266.3184 N   0  0  0  0  0  0
   89.5237   48.6742  266.8505 H   0  0  0  0  0  0
   89.6433   47.3181  265.3224 C   0  0  0  0  0  0
   90.3737   46.9237  264.1764 C   0  0  0  0  0  0
   91.3924   47.2426  264.0279 H   0  0  0  0  0  0
   89.8692   46.1396  263.2078 N   0  0  0  0  0  0
   88.5969   45.7250  263.2948 C   0  0  0  0  0  0
   88.2399   45.0979  262.4913 H   0  0  0  0  0  0
   87.7646   46.0710  264.3681 C   0  0  0  0  0  0
   86.7497   45.7045  264.4124 H   0  0  0  0  0  0
   88.2928   46.8833  265.3862 C   0  0  0  0  0  0
   87.2259   47.2064  266.7860 S   0  0  0  0  0  0
   85.8319   47.1386  266.3188 O   0  0  0  0  0  0
   87.6780   48.4215  267.4762 O   0  0  0  0  0  0
   87.5437   45.7787  267.8871 C   0  0  0  0  0  0
   86.9220   45.8616  268.7763 H   0  0  0  0  0  0
   87.2950   44.8589  267.3600 H   0  0  0  0  0  0
   88.5995   45.7634  268.1639 H   0  0  0  0  0  0
   92.5085   47.3026  266.5325 C   0  0  0  0  0  0
   92.2247   46.3561  266.1039 H   0  0  0  0  0  0
  1  2  1  0  0  0
  2  7  1  0  0  0
  2  3  2  0  0  0
  3  4  1  0  0  0
  4 48  1  0  0  0
  4  5  2  0  0  0
  5  6  1  0  0  0
  5  9  1  0  0  0
  6  7  2  0  0  0
  7  8  1  0  0  0
  9 10  1  0  0  0
  9 27  2  0  0  0
 10 25  1  0  0  0
 10 11  2  0  0  0
 11 12  1  0  0  0
 11 13  1  0  0  0
 13 14  1  0  0  0
 13 15  2  0  0  0
 15 24  1  0  0  0
 15 16  1  0  0  0
 16 17  1  0  0  0
 17 18  1  0  0  0
 17 19  1  0  0  0
 17 20  1  0  0  0
 20 21  1  0  0  0
 20 22  1  0  0  0
 20 23  1  0  0  0
 23 24  1  0  0  0
 24 25  2  0  0  0
 25 26  1  0  0  0
 27 28  1  0  0  0
 27 29  1  0  0  0
 29 30  1  0  0  0
 29 48  2  0  0  0
 30 31  1  0  0  0
 30 32  1  0  0  0
 32 40  1  0  0  0
 32 33  2  0  0  0
 33 34  1  0  0  0
 33 35  1  0  0  0
 35 36  2  0  0  0
 36 37  1  0  0  0
 36 38  1  0  0  0
 38 39  1  0  0  0
 38 40  2  0  0  0
 40 41  1  0  0  0
 41 42  2  0  0  0
 41 43  2  0  0  0
 41 44  1  0  0  0
 44 45  1  0  0  0
 44 46  1  0  0  0
 44 47  1  0  0  0
 48 49  1  0  0  0
M  END
> <s_m_source_file>
ligprep_pfkfb3.smi

> <i_m_source_file_index>
31

> <i_lp_mmshare_version>
53161

> <i_f3d_flags>
0

> <s_epik_input>
TzFbQ0gyXVtDSDJdT2MoYzEyKVtjSF1jKFtjSF1bY0hdMiktYyhjKGMzNCluW2NIXVtjSF1uMylbY0hdYyhbY0hdNClbTkhdYzVbY0hdbltjSF1bY0hdYzVTKD1PKSg9TylbQ0gzXQ==

> <s_epik_cmdline>
J2VwaWtfcHl0aG9uJywgJy1waHQnLCAnMC4wJywgJy1waCcsICc3LjQnLCAnLXRuJywgJzgnLCAnLW1hJywgJzUwMCcsICctaW1hZScsICc8aW5maWxlLm1hZT4nLCAnLW9tYWUnLCAnPG91dGZpbGUubWFlPic=

> <r_lp_tautomer_probability>
1

> <r_epik_Ionization_Penalty>
0

> <r_epik_Ionization_Penalty_Charging>
0

> <r_epik_Ionization_Penalty_Neutral>
0

> <r_epik_State_Penalty>
-0

> <r_epik_Charging_Adjusted_Penalty>
0

> <i_epik_Tot_Q>
0

> <i_epik_Tot_abs_Q>
0

> <s_lp_Force_Field>
S-OPLS

> <r_lp_Energy>
51.5709

> <b_lp_Chiralities_Consistent>
1

> <s_lp_Variant>
lig_59-1

> <s_i_glide_gridfile>
glide-grid_6HVI-PFKFB3

> <i_i_glide_lignum>
31

> <i_i_glide_rotatable_bonds>
4

> <r_i_docking_score>
-10.6571

> <r_i_glide_ligand_efficiency>
-0.343778

> <r_i_glide_ligand_efficiency_sa>
-1.07994

> <r_i_glide_ligand_efficiency_ln>
-2.4035

> <r_i_glide_gscore>
-10.6571

> <r_i_glide_lipo>
-5.79954

> <r_i_glide_hbond>
-0.32

> <r_i_glide_metal>
-0

> <r_i_glide_rewards>
-0.979217

> <r_i_glide_evdw>
-59.4497

> <r_i_glide_ecoul>
-6.19861

> <r_i_glide_erotb>
0.422032

> <r_i_glide_esite>
-0.0781114

> <r_i_glide_emodel>
-109.176

> <r_i_glide_energy>
-65.6483

> <r_i_glide_einternal>
-1.36759e-07

> <i_i_glide_confnum>
5

> <i_i_glide_posenum>
1

> <r_i_glide_eff_state_penalty>
-0

> <r_i_glide_rmsd>
0.0826496

> <s_glide_core_constrain_type>
snapped_core_restrain
$$$$