lig_41
                    3D
 Schrodinger Suite 2021-1.
 33 34  0  0  1  0            999 V2000
   28.4411    2.0164  -11.8623 H   0  0  0  0  0  0
   27.6260    1.7480  -11.4422 O   0  0  0  0  0  0
   27.4256    0.3723  -11.6361 C   0  0  0  0  0  0
   27.3347    0.1729  -12.7043 H   0  0  0  0  0  0
   28.3355   -0.1430  -11.3683 H   0  0  0  0  0  0
   26.1734   -0.1048  -10.9062 C   0  0  0  0  0  0
   24.9244    0.0830  -11.5519 C   0  0  0  0  0  0
   24.8374    0.8605  -13.0974 Cl  0  0  0  0  0  0
   23.7173   -0.3223  -10.9467 C   0  0  0  0  0  0
   22.5633   -0.1334  -11.6699 O   0  0  0  0  0  0
   21.3481   -0.4515  -11.1343 C   0  0  0  0  0  0
   20.8014   -1.7310  -11.3464 C   0  0  0  0  0  0
   21.3485   -2.4722  -11.9118 H   0  0  0  0  0  0
   19.5297   -2.0354  -10.8314 C   0  0  0  0  0  0
   18.9793   -3.2467  -11.0627 F   0  0  0  0  0  0
   18.8142   -1.0702  -10.1010 C   0  0  0  0  0  0
   17.8406   -1.3200   -9.7111 H   0  0  0  0  0  0
   19.3473    0.2180   -9.9082 C   0  0  0  0  0  0
   18.4398    1.4358   -9.0827 Cl  0  0  0  0  0  0
   20.6200    0.5200  -10.4205 C   0  0  0  0  0  0
   21.0286    1.5094  -10.2811 H   0  0  0  0  0  0
   23.7419   -0.8572   -9.6408 C   0  0  0  0  0  0
   22.8333   -1.1573   -9.1380 H   0  0  0  0  0  0
   24.9676   -1.0161   -8.9741 C   0  0  0  0  0  0
   24.9607   -1.4245   -7.9749 H   0  0  0  0  0  0
   26.1860   -0.6795   -9.6012 C   0  0  0  0  0  0
   27.6759   -0.9693   -8.6187 S   0  0  0  0  0  0
   27.3355   -1.9280   -7.5570 O   0  0  0  0  0  0
   28.7966   -1.3022   -9.5016 O   0  0  0  0  0  0
   28.0570    0.6457   -7.8224 C   0  0  0  0  0  0
   29.0897    0.6136   -7.4840 H   0  0  0  0  0  0
   27.9444    1.6476   -8.6889 F   0  0  0  0  0  0
   27.2596    0.8326   -6.7714 F   0  0  0  0  0  0
  1  2  1  0  0  0
  2  3  1  0  0  0
  3  4  1  0  0  0
  3  5  1  0  0  0
  3  6  1  0  0  0
  6 26  1  0  0  0
  6  7  2  0  0  0
  7  8  1  0  0  0
  7  9  1  0  0  0
  9 10  1  0  0  0
  9 22  2  0  0  0
 10 11  1  0  0  0
 11 20  1  0  0  0
 11 12  2  0  0  0
 12 13  1  0  0  0
 12 14  1  0  0  0
 14 15  1  0  0  0
 14 16  2  0  0  0
 16 17  1  0  0  0
 16 18  1  0  0  0
 18 19  1  0  0  0
 18 20  2  0  0  0
 20 21  1  0  0  0
 22 23  1  0  0  0
 22 24  1  0  0  0
 24 25  1  0  0  0
 24 26  2  0  0  0
 26 27  1  0  0  0
 27 28  2  0  0  0
 27 29  2  0  0  0
 27 30  1  0  0  0
 30 31  1  0  0  0
 30 32  1  0  0  0
 30 33  1  0  0  0
M  END
> <s_m_source_file>
ligprep_hif2a.smi

> <i_m_source_file_index>
32

> <i_lp_mmshare_version>
53161

> <i_f3d_flags>
0

> <s_epik_input>
RltDSF0oRilTKD1PKSg9TyljMVtjSF1bY0hdYyhjKENsKWMxW0NIMl1bT0hdKU9jMltjSF1jKEYpW2NIXWMoQ2wpW2NIXTI=

> <s_epik_cmdline>
J2VwaWtfcHl0aG9uJywgJy1waHQnLCAnMC4wJywgJy1waCcsICc3LjQnLCAnLXRuJywgJzgnLCAnLW1hJywgJzUwMCcsICctaW1hZScsICc8aW5maWxlLm1hZT4nLCAnLW9tYWUnLCAnPG91dGZpbGUubWFlPic=

> <r_lp_tautomer_probability>
1

> <r_epik_Ionization_Penalty>
0

> <r_epik_Ionization_Penalty_Charging>
0

> <r_epik_Ionization_Penalty_Neutral>
0

> <r_epik_State_Penalty>
-0

> <r_epik_Charging_Adjusted_Penalty>
0

> <i_epik_Tot_Q>
0

> <i_epik_Tot_abs_Q>
0

> <s_lp_Force_Field>
S-OPLS

> <r_lp_Energy>
27.3926

> <b_lp_Chiralities_Consistent>
1

> <s_lp_Variant>
lig_41-1

> <s_i_glide_gridfile>
glide-grid_5TBM-HIF2a

> <i_i_glide_lignum>
32

> <i_i_glide_rotatable_bonds>
6

> <r_i_docking_score>
-11.274

> <r_i_glide_ligand_efficiency>
-0.46975

> <r_i_glide_ligand_efficiency_sa>
-1.35499

> <r_i_glide_ligand_efficiency_ln>
-2.69838

> <r_i_glide_gscore>
-11.274

> <r_i_glide_lipo>
-4.68101

> <r_i_glide_hbond>
-0.608

> <r_i_glide_metal>
-0

> <r_i_glide_rewards>
-2.84298

> <r_i_glide_evdw>
-51.1096

> <r_i_glide_ecoul>
-7.97175

> <r_i_glide_erotb>
0.609246

> <r_i_glide_esite>
0

> <r_i_glide_emodel>
-97.4717

> <r_i_glide_energy>
-59.0813

> <r_i_glide_einternal>
0.939314

> <i_i_glide_confnum>
3

> <i_i_glide_posenum>
9

> <r_i_glide_eff_state_penalty>
-0

> <r_i_glide_rmsd>
0.0876873

> <s_glide_core_constrain_type>
snapped_core_restrain
$$$$