lig_20670_2qbs
                    3D
 Schrodinger Suite 2021-1.
 45 47  0  0  1  0            999 V2000
   44.4702    8.8182   -0.1035 H   0  0  0  0  0  0
   45.2353    9.4503    0.3108 C   0  0  0  0  0  0
   44.9630   10.8067    0.5768 C   0  0  0  0  0  0
   45.9521   11.6501    1.1407 C   0  0  0  0  0  0
   47.2231   11.0825    1.4006 C   0  0  0  0  0  0
   47.4888    9.7144    1.1835 C   0  0  0  0  0  0
   46.4837    8.8886    0.6458 C   0  0  0  0  0  0
   46.6629    7.8364    0.4694 H   0  0  0  0  0  0
   48.7720    9.2596    1.5160 N   0  0  0  0  0  0
   49.4146    9.9514    1.8926 H   0  0  0  0  0  0
   49.0572    7.8733    1.8831 C   0  0  0  0  0  0
   50.5791    7.7138    2.0591 C   0  0  0  0  0  0
   50.9894    6.3201    2.5516 C   0  0  0  0  0  0
   50.2565    5.9568    3.8476 C   0  0  0  0  0  0
   48.7332    6.0590    3.6672 C   0  0  0  0  0  0
   48.3091    7.4539    3.1731 C   0  0  0  0  0  0
   48.4986    8.1841    3.9585 H   0  0  0  0  0  0
   47.2304    7.4485    3.0084 H   0  0  0  0  0  0
   48.3831    5.3046    2.9627 H   0  0  0  0  0  0
   48.2402    5.8440    4.6163 H   0  0  0  0  0  0
   50.5240    4.9483    4.1671 H   0  0  0  0  0  0
   50.5810    6.6291    4.6455 H   0  0  0  0  0  0
   50.7715    5.5730    1.7913 H   0  0  0  0  0  0
   52.0684    6.3018    2.7129 H   0  0  0  0  0  0
   51.0823    7.9192    1.1144 H   0  0  0  0  0  0
   50.9505    8.4549    2.7676 H   0  0  0  0  0  0
   48.7437    7.2185    1.0676 H   0  0  0  0  0  0
   48.0131   11.7112    1.7991 H   0  0  0  0  0  0
   45.6827   13.0491    1.4801 C   0  0  0  0  0  0
   46.1650   13.8153    2.5169 C   0  0  0  0  0  0
   45.6997   15.1575    2.5461 C   0  0  0  0  0  0
   44.8235   15.4345    1.5344 C   0  0  0  0  0  0
   44.5775   14.0125    0.5195 S   0  0  0  0  0  0
   44.0898   16.6752    1.2070 C   0  0  0  0  0  0
   43.5622   16.8204    0.0891 O   0  0  0  0  0  0
   44.0226   17.5863    2.0656 O   0  5  0  0  0  0
   46.0231   16.0354    3.5161 O   0  0  0  0  0  0
   47.2232   16.7577    3.3408 C   0  0  0  0  0  0
   47.0835   17.5401    2.6008 H   0  0  0  0  0  0
   48.0231   16.1129    2.9990 H   0  0  0  0  0  0
   47.6202   17.3944    4.6738 C   0  0  0  0  0  0
   48.7174   17.9912    4.7156 O   0  0  0  0  0  0
   46.8264   17.2873    5.6419 O   0  5  0  0  0  0
   47.2850   13.1870    3.9155 Br  0  0  0  0  0  0
   43.9839   11.2055    0.3554 H   0  0  0  0  0  0
  1  2  1  0  0  0
  2  7  1  0  0  0
  2  3  2  0  0  0
  3  4  1  0  0  0
  3 45  1  0  0  0
  4  5  2  0  0  0
  4 29  1  0  0  0
  5  6  1  0  0  0
  5 28  1  0  0  0
  6  7  2  0  0  0
  6  9  1  0  0  0
  7  8  1  0  0  0
  9 10  1  0  0  0
  9 11  1  0  0  0
 11 16  1  0  0  0
 11 12  1  0  0  0
 11 27  1  0  0  0
 12 13  1  0  0  0
 12 25  1  0  0  0
 12 26  1  0  0  0
 13 14  1  0  0  0
 13 23  1  0  0  0
 13 24  1  0  0  0
 14 15  1  0  0  0
 14 21  1  0  0  0
 14 22  1  0  0  0
 15 16  1  0  0  0
 15 19  1  0  0  0
 15 20  1  0  0  0
 16 17  1  0  0  0
 16 18  1  0  0  0
 29 33  1  0  0  0
 29 30  2  0  0  0
 30 31  1  0  0  0
 30 44  1  0  0  0
 31 32  2  0  0  0
 31 37  1  0  0  0
 32 33  1  0  0  0
 32 34  1  0  0  0
 34 35  2  0  0  0
 34 36  1  0  0  0
 37 38  1  0  0  0
 38 39  1  0  0  0
 38 40  1  0  0  0
 38 41  1  0  0  0
 41 42  2  0  0  0
 41 43  1  0  0  0
M  CHG  2  36  -1  43  -1
M  END
> <s_m_source_file>
ligprep_ptp1b.smi

> <i_m_source_file_index>
3

> <i_lp_mmshare_version>
53161

> <i_f3d_flags>
0

> <s_epik_input>
Tz1DKFtPSF0pW0NIMl1PYyhjKHMxKUMoPU8pW09IXSljKEJyKWMxLWMyW2NIXVtjSF1bY0hdYyhbY0hdMilbTkhdW0NIXTNbQ0gyXVtDSDJdW0NIMl1bQ0gyXVtDSDJdMw==

> <s_epik_cmdline>
J2VwaWtfcHl0aG9uJywgJy1waHQnLCAnMC4wJywgJy1waCcsICc3LjQnLCAnLXRuJywgJzgnLCAnLW1hJywgJzUwMCcsICctaW1hZScsICc8aW5maWxlLm1hZT4nLCAnLW9tYWUnLCAnPG91dGZpbGUubWFlPic=

> <r_lp_tautomer_probability>
1

> <r_epik_Ionization_Penalty>
0.0027

> <r_epik_Ionization_Penalty_Charging>
0.0001

> <r_epik_Ionization_Penalty_Neutral>
0.0027

> <r_epik_State_Penalty>
-0

> <r_epik_Charging_Adjusted_Penalty>
9.21585e-05

> <i_epik_Tot_Q>
-2

> <i_epik_Tot_abs_Q>
2

> <s_lp_Force_Field>
S-OPLS

> <r_lp_Energy>
51.8102

> <b_lp_Chiralities_Consistent>
1

> <s_lp_Variant>
lig_20670_2qbs-1

> <s_i_glide_gridfile>
glide-grid_2QBS-PTP1B

> <i_i_glide_lignum>
3

> <i_i_glide_rotatable_bonds>
7

> <r_i_docking_score>
-8.48089

> <r_i_glide_ligand_efficiency>
-0.314107

> <r_i_glide_ligand_efficiency_sa>
-0.942321

> <r_i_glide_ligand_efficiency_ln>
-1.97421

> <r_i_glide_gscore>
-8.48089

> <r_i_glide_lipo>
-1.50652

> <r_i_glide_hbond>
-1.25431

> <r_i_glide_metal>
-0

> <r_i_glide_rewards>
-0.35064

> <r_i_glide_evdw>
-39.2432

> <r_i_glide_ecoul>
-29.8479

> <r_i_glide_erotb>
0.68648

> <r_i_glide_esite>
-0.093739

> <r_i_glide_emodel>
-138.33

> <r_i_glide_energy>
-69.0911

> <r_i_glide_einternal>
5.93208e-07

> <i_i_glide_confnum>
1

> <i_i_glide_posenum>
1

> <r_i_glide_eff_state_penalty>
-0

> <r_i_glide_rmsd>
0.0750532

> <s_glide_core_constrain_type>
snapped_core_restrain
$$$$