lig_49175789
                    3D
 Schrodinger Suite 2021-1.
 61 65  0  0  1  0            999 V2000
   18.3091    3.5999  -37.9229 C   0  0  0  0  0  0
   17.6888    3.7809  -39.2807 C   0  0  0  0  0  0
   16.3449    3.1182  -39.5172 C   0  0  0  0  0  0
   15.4735    2.6831  -38.3199 C   0  0  0  0  0  0
   14.2891    3.3914  -38.0919 O   0  0  0  0  0  0
   13.2632    2.7759  -38.7155 C   0  0  0  0  0  0
   12.0972    2.4503  -38.0055 C   0  0  0  0  0  0
   11.0363    1.8025  -38.6723 C   0  0  0  0  0  0
   11.1339    1.5239  -40.0531 C   0  0  0  0  0  0
   12.2783    1.9165  -40.7823 C   0  0  0  0  0  0
   13.3494    2.5055  -40.0936 C   0  0  0  0  0  0
   12.4055    1.6911  -42.2299 C   0  0  0  0  0  0
   13.3347    0.8784  -42.7423 N   0  0  0  0  0  0
   13.1647    0.7976  -44.1292 N   0  0  0  0  0  0
   12.1346    1.5915  -44.4112 C   0  0  0  0  0  0
   11.7129    2.1617  -43.2842 N   0  0  0  0  0  0
   10.6806    3.1118  -43.2842 C   0  0  0  0  0  0
   10.2464    3.9164  -42.1930 C   0  0  0  0  0  0
    9.2093    4.8667  -42.3023 C   0  0  0  0  0  0
    8.5487    5.0388  -43.5303 C   0  0  0  0  0  0
    8.9504    4.2788  -44.6329 C   0  0  0  0  0  0
   10.0044    3.3519  -44.5298 C   0  0  0  0  0  0
   10.3973    2.6986  -45.6551 N   0  0  0  0  0  0
   11.4658    1.8748  -45.6190 C   0  0  0  0  0  0
   11.8950    1.2420  -46.9304 C   0  0  0  0  0  0
    8.7837    5.6699  -41.0830 C   0  0  0  0  0  0
    8.3221    7.0241  -41.3820 N   0  0  0  0  0  0
    7.6471    7.6283  -40.2381 C   0  0  0  0  0  0
    7.1262    9.0413  -40.5538 C   0  0  0  0  0  0
    8.2083    9.8556  -40.9978 O   0  0  0  0  0  0
    8.8898    9.3254  -42.1320 C   0  0  0  0  0  0
    9.4003    7.9065  -41.8218 C   0  0  0  0  0  0
    9.8377    0.7040  -40.8359 Cl  0  0  0  0  0  0
   19.1252    4.2826  -37.7523 H   0  0  0  0  0  0
   18.7252    2.6637  -37.6796 H   0  0  0  0  0  0
   17.5277    3.8822  -37.2409 H   0  0  0  0  0  0
   17.5242    4.8424  -39.3738 H   0  0  0  0  0  0
   18.3890    3.4829  -40.0646 H   0  0  0  0  0  0
   15.8032    3.8123  -40.1533 H   0  0  0  0  0  0
   16.5483    2.2282  -40.0987 H   0  0  0  0  0  0
   15.2137    1.6305  -38.4757 H   0  0  0  0  0  0
   15.9243    2.6826  -37.3531 H   0  0  0  0  0  0
   12.0253    2.6740  -36.9519 H   0  0  0  0  0  0
   10.1473    1.5161  -38.1297 H   0  0  0  0  0  0
   14.1921    2.7659  -40.6991 H   0  0  0  0  0  0
   10.7339    3.8435  -41.2388 H   0  0  0  0  0  0
    7.7351    5.7434  -43.6333 H   0  0  0  0  0  0
    8.4580    4.4172  -45.5813 H   0  0  0  0  0  0
   11.9271    0.1578  -46.8361 H   0  0  0  0  0  0
   11.2158    1.4904  -47.7482 H   0  0  0  0  0  0
   12.8933    1.5834  -47.1972 H   0  0  0  0  0  0
    7.9718    5.1077  -40.6151 H   0  0  0  0  0  0
    9.6043    5.6993  -40.3594 H   0  0  0  0  0  0
    6.8083    6.9993  -39.9333 H   0  0  0  0  0  0
    8.3279    7.6777  -39.3884 H   0  0  0  0  0  0
    6.7086    9.4878  -39.6520 H   0  0  0  0  0  0
    6.3260    9.0212  -41.3009 H   0  0  0  0  0  0
    9.7198    9.9836  -42.3791 H   0  0  0  0  0  0
    8.2320    9.3162  -43.0009 H   0  0  0  0  0  0
   10.1646    7.9726  -41.0472 H   0  0  0  0  0  0
    9.8852    7.5035  -42.7132 H   0  0  0  0  0  0
  1  2  1  0  0  0
  1 34  1  0  0  0
  1 35  1  0  0  0
  1 36  1  0  0  0
  2  3  1  0  0  0
  2 37  1  0  0  0
  2 38  1  0  0  0
  3  4  1  0  0  0
  3 39  1  0  0  0
  3 40  1  0  0  0
  4  5  1  0  0  0
  4 41  1  0  0  0
  4 42  1  0  0  0
  5  6  1  0  0  0
  6 11  1  0  0  0
  6  7  2  0  0  0
  7  8  1  0  0  0
  7 43  1  0  0  0
  8  9  2  0  0  0
  8 44  1  0  0  0
  9 10  1  0  0  0
  9 33  1  0  0  0
 10 11  2  0  0  0
 10 12  1  0  0  0
 11 45  1  0  0  0
 12 16  1  0  0  0
 12 13  2  0  0  0
 13 14  1  0  0  0
 14 15  2  0  0  0
 15 24  1  0  0  0
 15 16  1  0  0  0
 16 17  1  0  0  0
 17 22  1  0  0  0
 17 18  2  0  0  0
 18 19  1  0  0  0
 18 46  1  0  0  0
 19 20  2  0  0  0
 19 26  1  0  0  0
 20 21  1  0  0  0
 20 47  1  0  0  0
 21 22  2  0  0  0
 21 48  1  0  0  0
 22 23  1  0  0  0
 23 24  2  0  0  0
 24 25  1  0  0  0
 25 49  1  0  0  0
 25 50  1  0  0  0
 25 51  1  0  0  0
 26 27  1  0  0  0
 26 52  1  0  0  0
 26 53  1  0  0  0
 27 32  1  0  0  0
 27 28  1  0  0  0
 28 29  1  0  0  0
 28 54  1  0  0  0
 28 55  1  0  0  0
 29 30  1  0  0  0
 29 56  1  0  0  0
 29 57  1  0  0  0
 30 31  1  0  0  0
 31 32  1  0  0  0
 31 58  1  0  0  0
 31 59  1  0  0  0
 32 60  1  0  0  0
 32 61  1  0  0  0
M  END
> <s_m_source_file>
ligprep_pde2.smi

> <i_m_source_file_index>
9

> <i_lp_mmshare_version>
53161

> <i_f3d_flags>
0

> <s_epik_input>
W0NIM11bQ0gyXVtDSDJdW0NIMl1PYzFbY0hdW2NIXWMoQ2wpYyhbY0hdMSktYyhubjIpbihjMjMpYzRjKG5jM1tDSDNdKVtjSF1bY0hdYyhbY0hdNClbQ0gyXU41W0NIMl1bQ0gyXU9bQ0gyXVtDSDJdNQ==

> <s_epik_cmdline>
J2VwaWtfcHl0aG9uJywgJy1waHQnLCAnMC4wJywgJy1waCcsICc3LjQnLCAnLXRuJywgJzgnLCAnLW1hJywgJzUwMCcsICctaW1hZScsICc8aW5maWxlLm1hZT4nLCAnLW9tYWUnLCAnPG91dGZpbGUubWFlPic=

> <r_lp_tautomer_probability>
1

> <r_epik_Ionization_Penalty>
0.1301

> <r_epik_Ionization_Penalty_Charging>
0

> <r_epik_Ionization_Penalty_Neutral>
0.1301

> <r_epik_State_Penalty>
0.1195

> <r_epik_Charging_Adjusted_Penalty>
0.119465

> <i_epik_Tot_Q>
0

> <i_epik_Tot_abs_Q>
0

> <s_lp_Force_Field>
S-OPLS

> <r_lp_Energy>
49.7071

> <b_lp_Chiralities_Consistent>
1

> <s_lp_Variant>
lig_49175789-1

> <s_i_glide_gridfile>
glide-grid_6C7E-PDE2

> <i_i_glide_lignum>
9

> <i_i_glide_rotatable_bonds>
7

> <r_i_docking_score>
-5.50135

> <r_i_glide_ligand_efficiency>
-0.166708

> <r_i_glide_ligand_efficiency_sa>
-0.53472

> <r_i_glide_ligand_efficiency_ln>
-1.22347

> <r_i_glide_gscore>
-5.62085

> <r_i_glide_lipo>
-3.71747

> <r_i_glide_hbond>
-0.32

> <r_i_glide_metal>
-0

> <r_i_glide_rewards>
0.00471984

> <r_i_glide_evdw>
-24.8181

> <r_i_glide_ecoul>
-5.63779

> <r_i_glide_erotb>
0.557388

> <r_i_glide_esite>
-0.0589167

> <r_i_glide_emodel>
-29.8804

> <r_i_glide_energy>
-30.4559

> <r_i_glide_einternal>
13.216

> <i_i_glide_confnum>
52

> <i_i_glide_posenum>
116

> <r_i_glide_eff_state_penalty>
0.1195

> <r_i_glide_rmsd>
0.1093

> <s_glide_core_constrain_type>
snapped_core_restrain
$$$$