lig_p38a_2y
                    3D
 Schrodinger Suite 2021-1.
 45 47  0  0  1  0            999 V2000
   27.0624    6.3398   30.9569 H   0  0  0  0  0  0
   27.7204    7.0234   30.9197 O   0  0  0  0  0  0
   27.4783    7.9011   31.8780 C   0  0  0  0  0  0
   27.1001    7.1763   33.1832 C   0  0  0  0  0  0
   26.8608    7.8927   33.9694 H   0  0  0  0  0  0
   27.9228    6.5567   33.5409 H   0  0  0  0  0  0
   26.2348    6.5239   33.0593 H   0  0  0  0  0  0
   28.7631    8.7258   32.0573 C   0  0  0  0  0  0
   28.6297    9.5023   32.8113 H   0  0  0  0  0  0
   29.5994    8.0993   32.3727 H   0  0  0  0  0  0
   29.0559    9.2187   31.1282 H   0  0  0  0  0  0
   26.3586    8.7647   31.2873 C   0  0  0  0  0  0
   26.2214    9.6255   31.9426 H   0  0  0  0  0  0
   26.6425    9.1650   30.3121 H   0  0  0  0  0  0
   25.0920    8.0445   31.1626 N   0  0  0  0  0  0
   25.1103    7.0410   31.0589 H   0  0  0  0  0  0
   23.8671    8.6642   31.0979 C   0  0  0  0  0  0
   23.8490    9.9797   31.2756 N   0  0  0  0  0  0
   22.6652   10.6196   31.2569 C   0  0  0  0  0  0
   21.4822    9.8873   31.0330 C   0  0  0  0  0  0
   21.6121    8.4952   30.8397 C   0  0  0  0  0  0
   20.7484    7.8686   30.6714 H   0  0  0  0  0  0
   22.8143    7.8788   30.8825 N   0  0  0  0  0  0
   20.2121   10.6059   31.0387 C   0  0  0  0  0  0
   19.3204   10.0306   30.8403 H   0  0  0  0  0  0
   20.1725   11.9362   31.2832 C   0  0  0  0  0  0
   19.0207   12.6883   31.2970 O   0  0  0  0  0  0
   17.7766   12.1243   31.2195 C   0  0  0  0  0  0
   17.2551   11.3193   32.2559 C   0  0  0  0  0  0
   18.0156   11.0234   33.3350 F   0  0  0  0  0  0
   15.9378   10.8308   32.1695 C   0  0  0  0  0  0
   15.5373   10.2117   32.9585 H   0  0  0  0  0  0
   15.1532   11.1243   31.0394 C   0  0  0  0  0  0
   13.9047   10.6234   30.9311 F   0  0  0  0  0  0
   15.6666   11.9367   30.0139 C   0  0  0  0  0  0
   15.0570   12.1653   29.1529 H   0  0  0  0  0  0
   16.9697   12.4533   30.1152 C   0  0  0  0  0  0
   17.3598   13.0892   29.3341 H   0  0  0  0  0  0
   21.3969   12.7043   31.5151 C   0  0  0  0  0  0
   21.3416   13.9149   31.7351 O   0  0  0  0  0  0
   22.5788   12.0293   31.4765 N   0  0  0  0  0  0
   23.8435   12.7526   31.6945 C   0  0  0  0  0  0
   23.7490   13.8351   31.7758 H   0  0  0  0  0  0
   24.3148   12.4046   32.6136 H   0  0  0  0  0  0
   24.5356   12.5633   30.8720 H   0  0  0  0  0  0
  1  2  1  0  0  0
  2  3  1  0  0  0
  3  4  1  0  0  0
  3  8  1  0  0  0
  3 12  1  0  0  0
  4  5  1  0  0  0
  4  6  1  0  0  0
  4  7  1  0  0  0
  8  9  1  0  0  0
  8 10  1  0  0  0
  8 11  1  0  0  0
 12 13  1  0  0  0
 12 14  1  0  0  0
 12 15  1  0  0  0
 15 16  1  0  0  0
 15 17  1  0  0  0
 17 23  1  0  0  0
 17 18  2  0  0  0
 18 19  1  0  0  0
 19 41  1  0  0  0
 19 20  2  0  0  0
 20 21  1  0  0  0
 20 24  1  0  0  0
 21 22  1  0  0  0
 21 23  2  0  0  0
 24 25  1  0  0  0
 24 26  2  0  0  0
 26 27  1  0  0  0
 26 39  1  0  0  0
 27 28  1  0  0  0
 28 37  1  0  0  0
 28 29  2  0  0  0
 29 30  1  0  0  0
 29 31  1  0  0  0
 31 32  1  0  0  0
 31 33  2  0  0  0
 33 34  1  0  0  0
 33 35  1  0  0  0
 35 36  1  0  0  0
 35 37  2  0  0  0
 37 38  1  0  0  0
 39 40  2  0  0  0
 39 41  1  0  0  0
 41 42  1  0  0  0
 42 43  1  0  0  0
 42 44  1  0  0  0
 42 45  1  0  0  0
M  END
> <s_m_source_file>
ligprep_p38.smi

> <i_m_source_file_index>
26

> <i_lp_mmshare_version>
53161

> <i_f3d_flags>
0

> <s_epik_input>
W09IXUMoW0NIM10pKFtDSDNdKVtDSDJdW05IXWMobjEpbltjSF1jKGMxMilbY0hdYyhjKD1PKW4yW0NIM10pT2MzYyhGKVtjSF1jKEYpW2NIXVtjSF0z

> <s_epik_cmdline>
J2VwaWtfcHl0aG9uJywgJy1waHQnLCAnMC4wJywgJy1waCcsICc3LjQnLCAnLXRuJywgJzgnLCAnLW1hJywgJzUwMCcsICctaW1hZScsICc8aW5maWxlLm1hZT4nLCAnLW9tYWUnLCAnPG91dGZpbGUubWFlPic=

> <r_lp_tautomer_probability>
1

> <r_epik_Ionization_Penalty>
0

> <r_epik_Ionization_Penalty_Charging>
0

> <r_epik_Ionization_Penalty_Neutral>
0

> <r_epik_State_Penalty>
-0

> <r_epik_Charging_Adjusted_Penalty>
4.39099e-07

> <i_epik_Tot_Q>
0

> <i_epik_Tot_abs_Q>
0

> <s_epik_Chemistry_Notes>
This compound has an imine and may undergo hydrolysis.

> <s_lp_Force_Field>
S-OPLS

> <r_lp_Energy>
49.8028

> <b_lp_Chiralities_Consistent>
1

> <s_lp_Variant>
lig_p38a_2y-1

> <s_i_glide_gridfile>
glide-grid_3FLY-P38

> <i_i_glide_lignum>
27

> <i_i_glide_rotatable_bonds>
6

> <r_i_docking_score>
-10.279

> <r_i_glide_ligand_efficiency>
-0.380703

> <r_i_glide_ligand_efficiency_sa>
-1.14211

> <r_i_glide_ligand_efficiency_ln>
-2.39277

> <r_i_glide_gscore>
-10.279

> <r_i_glide_lipo>
-2.98822

> <r_i_glide_hbond>
-1.3998

> <r_i_glide_metal>
-0

> <r_i_glide_rewards>
-2.88806

> <r_i_glide_evdw>
-33.874

> <r_i_glide_ecoul>
-14.1942

> <r_i_glide_erotb>
0.819944

> <r_i_glide_esite>
0

> <r_i_glide_emodel>
-63.8731

> <r_i_glide_energy>
-48.0682

> <r_i_glide_einternal>
4.00586

> <i_i_glide_confnum>
5

> <i_i_glide_posenum>
4

> <r_i_glide_eff_state_penalty>
-0

> <r_i_glide_rmsd>
0.0877707

> <s_glide_core_constrain_type>
snapped_core_restrain
$$$$