lig_CHEMBL3265003
                    3D
 Schrodinger Suite 2021-1.
 65 70  0  0  1  0            999 V2000
   -9.7110    6.7330   12.2703 H   0  0  0  0  0  0
   -8.6886    6.5315   12.5559 C   0  0  0  0  0  0
   -8.3084    6.7790   13.8028 N   0  0  0  0  0  0
   -7.0189    6.3936   13.8228 N   0  0  0  0  0  0
   -6.4775    6.3791   14.6770 H   0  0  0  0  0  0
   -6.5750    5.9358   12.6078 C   0  0  0  0  0  0
   -5.2077    5.4676   12.4210 C   0  0  0  0  0  0
   -4.1703    5.8837   13.2855 C   0  0  0  0  0  0
   -4.3670    6.5623   14.1013 H   0  0  0  0  0  0
   -2.8511    5.4299   13.0897 C   0  0  0  0  0  0
   -2.0703    5.7627   13.7604 H   0  0  0  0  0  0
   -2.5483    4.5446   12.0376 C   0  0  0  0  0  0
   -1.1919    4.1339   11.8985 N   0  0  0  0  0  0
   -0.5934    4.3071   12.7024 H   0  0  0  0  0  0
   -0.5670    3.7168   10.7837 C   0  0  0  0  0  0
   -1.0899    3.6502    9.6715 O   0  0  0  0  0  0
    0.8864    3.3754   10.9444 C   0  0  0  0  0  0
    1.8125    3.8045    9.9702 C   0  0  0  0  0  0
    1.4841    4.4078    9.1393 H   0  0  0  0  0  0
    3.1675    3.4396   10.0716 C   0  0  0  0  0  0
    3.8737    3.7765    9.3274 H   0  0  0  0  0  0
    3.5941    2.6158   11.1284 C   0  0  0  0  0  0
    4.6301    2.3152   11.1566 H   0  0  0  0  0  0
    2.6844    2.1521   12.1088 C   0  0  0  0  0  0
    3.1410    1.2585   13.1939 C   0  0  0  0  0  0
    4.4233    1.3356   13.6787 C   0  0  0  0  0  0
    5.1765    2.0378   13.3427 H   0  0  0  0  0  0
    4.7523    0.5146   14.7018 N   0  0  0  0  0  0
    3.8297   -0.4058   15.2512 C   0  0  0  0  0  0
    4.3872   -1.0560   16.2732 N   0  0  0  0  0  0
    5.6574   -0.5062   16.4218 C   0  0  0  0  0  0
    6.2944   -0.8064   17.2331 H   0  0  0  0  0  0
    5.9128    0.4114   15.4440 C   0  0  0  0  0  0
    6.7639    1.0373   15.2240 H   0  0  0  0  0  0
    2.5304   -0.4242   14.6680 C   0  0  0  0  0  0
    1.5925   -1.3118   15.2254 N   0  0  0  0  0  0
    1.9979   -1.8906   15.9537 H   0  0  0  0  0  0
    0.2139   -1.5108   15.0208 C   0  0  0  0  0  0
   -0.3881   -2.5357   15.7772 C   0  0  0  0  0  0
    0.2021   -3.1181   16.4667 H   0  0  0  0  0  0
   -1.7636   -2.8055   15.6595 C   0  0  0  0  0  0
   -2.2044   -3.5931   16.2544 H   0  0  0  0  0  0
   -2.5642   -2.0502   14.7808 C   0  0  0  0  0  0
   -3.9075   -2.3209   14.6923 O   0  0  0  0  0  0
   -4.2446   -3.0927   13.5511 C   0  0  0  0  0  0
   -5.3186   -3.2731   13.5423 H   0  0  0  0  0  0
   -3.9836   -2.5826   12.6229 H   0  0  0  0  0  0
   -3.7389   -4.0593   13.5711 H   0  0  0  0  0  0
   -1.9898   -1.0107   14.0174 C   0  0  0  0  0  0
   -2.8361   -0.2868   13.1998 O   0  0  0  0  0  0
   -2.2567    0.6845   12.3413 C   0  0  0  0  0  0
   -3.0264    1.1275   11.7107 H   0  0  0  0  0  0
   -1.8037    1.4890   12.9228 H   0  0  0  0  0  0
   -1.5062    0.2392   11.6838 H   0  0  0  0  0  0
   -0.5985   -0.7562   14.1401 C   0  0  0  0  0  0
   -0.1670    0.0412   13.5678 H   0  0  0  0  0  0
    2.2099    0.3662   13.6819 N   0  0  0  0  0  0
    1.3307    2.5598   12.0108 C   0  0  0  0  0  0
    0.6182    2.2131   12.7437 H   0  0  0  0  0  0
   -3.5921    4.0887   11.1971 C   0  0  0  0  0  0
   -3.4110    3.3839   10.4003 H   0  0  0  0  0  0
   -4.9074    4.5576   11.3873 C   0  0  0  0  0  0
   -5.6943    4.2099   10.7348 H   0  0  0  0  0  0
   -7.6416    5.9894   11.7542 C   0  0  0  0  0  0
   -7.6740    5.6849   10.7167 H   0  0  0  0  0  0
  1  2  1  0  0  0
  2 64  1  0  0  0
  2  3  2  0  0  0
  3  4  1  0  0  0
  4  5  1  0  0  0
  4  6  1  0  0  0
  6  7  1  0  0  0
  6 64  2  0  0  0
  7 62  1  0  0  0
  7  8  2  0  0  0
  8  9  1  0  0  0
  8 10  1  0  0  0
 10 11  1  0  0  0
 10 12  2  0  0  0
 12 13  1  0  0  0
 12 60  1  0  0  0
 13 14  1  0  0  0
 13 15  1  0  0  0
 15 16  2  0  0  0
 15 17  1  0  0  0
 17 58  1  0  0  0
 17 18  2  0  0  0
 18 19  1  0  0  0
 18 20  1  0  0  0
 20 21  1  0  0  0
 20 22  2  0  0  0
 22 23  1  0  0  0
 22 24  1  0  0  0
 24 25  1  0  0  0
 24 58  2  0  0  0
 25 57  1  0  0  0
 25 26  2  0  0  0
 26 27  1  0  0  0
 26 28  1  0  0  0
 28 33  1  0  0  0
 28 29  1  0  0  0
 29 30  2  0  0  0
 29 35  1  0  0  0
 30 31  1  0  0  0
 31 32  1  0  0  0
 31 33  2  0  0  0
 33 34  1  0  0  0
 35 36  1  0  0  0
 35 57  2  0  0  0
 36 37  1  0  0  0
 36 38  1  0  0  0
 38 55  1  0  0  0
 38 39  2  0  0  0
 39 40  1  0  0  0
 39 41  1  0  0  0
 41 42  1  0  0  0
 41 43  2  0  0  0
 43 44  1  0  0  0
 43 49  1  0  0  0
 44 45  1  0  0  0
 45 46  1  0  0  0
 45 47  1  0  0  0
 45 48  1  0  0  0
 49 50  1  0  0  0
 49 55  2  0  0  0
 50 51  1  0  0  0
 51 52  1  0  0  0
 51 53  1  0  0  0
 51 54  1  0  0  0
 55 56  1  0  0  0
 58 59  1  0  0  0
 60 61  1  0  0  0
 60 62  2  0  0  0
 62 63  1  0  0  0
 64 65  1  0  0  0
M  END
> <s_m_source_file>
ligprep_syk.smi

> <i_m_source_file_index>
11

> <i_lp_mmshare_version>
53161

> <i_f3d_flags>
0

> <s_epik_input>
W2NIXTFbY0hdbltuSF1jMS1jMltjSF1bY0hdYyhbY0hdW2NIXTIpW05IXUMoPU8pYzNbY0hdW2NIXVtjSF1jKFtjSF0zKS1jKFtjSF00KW5jKGMobjQ1KW5bY0hdW2NIXTUpW05IXWM2W2NIXVtjSF1jKE9bQ0gzXSljKFtjSF02KU9bQ0gzXQ==

> <s_epik_cmdline>
J2VwaWtfcHl0aG9uJywgJy1waHQnLCAnMC4wJywgJy1waCcsICc3LjQnLCAnLXRuJywgJzgnLCAnLW1hJywgJzUwMCcsICctaW1hZScsICc8aW5maWxlLm1hZT4nLCAnLW9tYWUnLCAnPG91dGZpbGUubWFlPic=

> <r_lp_tautomer_probability>
1

> <r_epik_Ionization_Penalty>
0.0009

> <r_epik_Ionization_Penalty_Charging>
0.0009

> <r_epik_Ionization_Penalty_Neutral>
0

> <r_epik_State_Penalty>
-0

> <r_epik_Charging_Adjusted_Penalty>
0.000851558

> <i_epik_Tot_Q>
0

> <i_epik_Tot_abs_Q>
0

> <s_lp_Force_Field>
S-OPLS

> <r_lp_Energy>
57.9043

> <b_lp_Chiralities_Consistent>
1

> <s_lp_Variant>
lig_CHEMBL3265003-1

> <s_i_glide_gridfile>
glide-grid_4PV0-SYK

> <i_i_glide_lignum>
11

> <i_i_glide_rotatable_bonds>
9

> <r_i_docking_score>
-8.79798

> <r_i_glide_ligand_efficiency>
-0.219949

> <r_i_glide_ligand_efficiency_sa>
-0.752217

> <r_i_glide_ligand_efficiency_ln>
-1.87635

> <r_i_glide_gscore>
-8.79798

> <r_i_glide_lipo>
-3.03

> <r_i_glide_hbond>
-0.626715

> <r_i_glide_metal>
-0

> <r_i_glide_rewards>
-1.40327

> <r_i_glide_evdw>
-56.57

> <r_i_glide_ecoul>
-10.0634

> <r_i_glide_erotb>
0.656802

> <r_i_glide_esite>
-0.0567864

> <r_i_glide_emodel>
-99.7285

> <r_i_glide_energy>
-66.6334

> <r_i_glide_einternal>
0.475739

> <i_i_glide_confnum>
3

> <i_i_glide_posenum>
4

> <r_i_glide_eff_state_penalty>
-0

> <r_i_glide_rmsd>
0.0869553

> <s_glide_core_constrain_type>
snapped_core_restrain
$$$$