lig_49072088
                    3D
 Schrodinger Suite 2021-1.
 57 61  0  0  1  0            999 V2000
   11.9042    1.2019  -46.8692 C   0  0  0  0  0  0
   11.4672    1.8770  -45.5845 C   0  0  0  0  0  0
   12.1583    1.6614  -44.3744 C   0  0  0  0  0  0
   13.2148    0.9056  -44.0776 N   0  0  0  0  0  0
   13.4147    1.0654  -42.7002 N   0  0  0  0  0  0
   12.4597    1.8643  -42.2038 C   0  0  0  0  0  0
   11.7403    2.2639  -43.2662 N   0  0  0  0  0  0
   10.6966    3.1989  -43.2858 C   0  0  0  0  0  0
   10.2967    4.0587  -42.2306 C   0  0  0  0  0  0
    9.2535    4.9993  -42.3585 C   0  0  0  0  0  0
    8.5543    5.1073  -43.5659 C   0  0  0  0  0  0
    8.9403    4.2975  -44.6477 C   0  0  0  0  0  0
   10.0009    3.3826  -44.5336 C   0  0  0  0  0  0
   10.3934    2.6979  -45.6395 N   0  0  0  0  0  0
    8.8649    5.8501  -41.1634 C   0  0  0  0  0  0
    7.9117    5.2233  -40.2916 N   0  0  0  0  0  0
    7.4750    6.1479  -39.2522 C   0  0  0  0  0  0
    6.4469    5.5083  -38.3177 C   0  0  0  0  0  0
    6.9502    4.2960  -37.7780 O   0  0  0  0  0  0
    7.3094    3.3579  -38.7910 C   0  0  0  0  0  0
    8.4016    4.0030  -39.6510 C   0  0  0  0  0  0
   12.3381    2.0848  -40.7624 C   0  0  0  0  0  0
   11.1521    1.7848  -40.0555 C   0  0  0  0  0  0
   11.1027    1.9778  -38.6537 C   0  0  0  0  0  0
   12.2885    2.4302  -38.0266 C   0  0  0  0  0  0
   13.4358    2.6826  -38.6810 N   0  0  0  0  0  0
   13.4566    2.5092  -40.0212 C   0  0  0  0  0  0
    9.9252    1.7067  -37.9920 O   0  0  0  0  0  0
    9.8512    1.8306  -36.5674 C   0  0  0  0  0  0
    8.6242    1.0321  -36.1017 C   0  0  0  0  0  0
    9.7392    3.3020  -36.1259 C   0  0  0  0  0  0
   12.9080    1.5269  -47.1406 H   0  0  0  0  0  0
   11.9245    0.1201  -46.7435 H   0  0  0  0  0  0
   11.2358    1.4351  -47.6976 H   0  0  0  0  0  0
   10.8181    4.0355  -41.2959 H   0  0  0  0  0  0
    7.7505    5.8135  -43.6764 H   0  0  0  0  0  0
    8.4331    4.4077  -45.5983 H   0  0  0  0  0  0
    9.7808    6.1031  -40.6026 H   0  0  0  0  0  0
    8.3943    6.8612  -41.4737 H   0  0  0  0  0  0
    8.3369    6.4720  -38.6676 H   0  0  0  0  0  0
    7.0358    7.0353  -39.7089 H   0  0  0  0  0  0
    5.5317    5.3013  -38.8810 H   0  0  0  0  0  0
    6.2117    6.1985  -37.5060 H   0  0  0  0  0  0
    6.4441    3.0918  -39.3969 H   0  0  0  0  0  0
    7.6739    2.4374  -38.3556 H   0  0  0  0  0  0
    8.7234    3.2765  -40.3878 H   0  0  0  0  0  0
    9.2791    4.2269  -39.0372 H   0  0  0  0  0  0
   10.2818    1.4153  -40.5767 H   0  0  0  0  0  0
   12.3457    2.5972  -36.9622 H   0  0  0  0  0  0
   14.3976    2.7124  -40.5129 H   0  0  0  0  0  0
   10.7233    1.3654  -36.1077 H   0  0  0  0  0  0
    8.5412    1.0364  -35.0150 H   0  0  0  0  0  0
    8.6763   -0.0053  -36.4359 H   0  0  0  0  0  0
    7.6992    1.4581  -36.4879 H   0  0  0  0  0  0
    9.6713    3.3753  -35.0402 H   0  0  0  0  0  0
   10.5908    3.8997  -36.4455 H   0  0  0  0  0  0
    8.8499    3.7715  -36.5313 H   0  0  0  0  0  0
  1  2  1  0  0  0
  1 32  1  0  0  0
  1 33  1  0  0  0
  1 34  1  0  0  0
  2 14  2  0  0  0
  2  3  1  0  0  0
  3  7  1  0  0  0
  3  4  2  0  0  0
  4  5  1  0  0  0
  5  6  2  0  0  0
  6  7  1  0  0  0
  6 22  1  0  0  0
  7  8  1  0  0  0
  8 13  1  0  0  0
  8  9  2  0  0  0
  9 10  1  0  0  0
  9 35  1  0  0  0
 10 11  2  0  0  0
 10 15  1  0  0  0
 11 12  1  0  0  0
 11 36  1  0  0  0
 12 13  2  0  0  0
 12 37  1  0  0  0
 13 14  1  0  0  0
 15 16  1  0  0  0
 15 38  1  0  0  0
 15 39  1  0  0  0
 16 21  1  0  0  0
 16 17  1  0  0  0
 17 18  1  0  0  0
 17 40  1  0  0  0
 17 41  1  0  0  0
 18 19  1  0  0  0
 18 42  1  0  0  0
 18 43  1  0  0  0
 19 20  1  0  0  0
 20 21  1  0  0  0
 20 44  1  0  0  0
 20 45  1  0  0  0
 21 46  1  0  0  0
 21 47  1  0  0  0
 22 27  1  0  0  0
 22 23  2  0  0  0
 23 24  1  0  0  0
 23 48  1  0  0  0
 24 25  2  0  0  0
 24 28  1  0  0  0
 25 26  1  0  0  0
 25 49  1  0  0  0
 26 27  2  0  0  0
 27 50  1  0  0  0
 28 29  1  0  0  0
 29 30  1  0  0  0
 29 31  1  0  0  0
 29 51  1  0  0  0
 30 52  1  0  0  0
 30 53  1  0  0  0
 30 54  1  0  0  0
 31 55  1  0  0  0
 31 56  1  0  0  0
 31 57  1  0  0  0
M  END
> <s_m_source_file>
ligprep_pde2.smi

> <i_m_source_file_index>
6

> <i_lp_mmshare_version>
53161

> <i_f3d_flags>
0

> <s_epik_input>
W2NIXTFuW2NIXWMoT1tDSF0oW0NIM10pW0NIM10pW2NIXWMxLWMobm4yKW4oYzIzKWM0YyhuYzNbQ0gzXSlbY0hdW2NIXWMoW2NIXTQpW0NIMl1ONVtDSDJdW0NIMl1PW0NIMl1bQ0gyXTU=

> <s_epik_cmdline>
J2VwaWtfcHl0aG9uJywgJy1waHQnLCAnMC4wJywgJy1waCcsICc3LjQnLCAnLXRuJywgJzgnLCAnLW1hJywgJzUwMCcsICctaW1hZScsICc8aW5maWxlLm1hZT4nLCAnLW9tYWUnLCAnPG91dGZpbGUubWFlPic=

> <r_lp_tautomer_probability>
1

> <r_epik_Ionization_Penalty>
0.1302

> <r_epik_Ionization_Penalty_Charging>
0

> <r_epik_Ionization_Penalty_Neutral>
0.1302

> <r_epik_State_Penalty>
0.1195

> <r_epik_Charging_Adjusted_Penalty>
0.119465

> <i_epik_Tot_Q>
0

> <i_epik_Tot_abs_Q>
0

> <s_lp_Force_Field>
S-OPLS

> <r_lp_Energy>
51.2904

> <b_lp_Chiralities_Consistent>
1

> <s_lp_Variant>
lig_49072088-1

> <s_i_glide_gridfile>
glide-grid_6C7E-PDE2

> <i_i_glide_lignum>
6

> <i_i_glide_rotatable_bonds>
5

> <r_i_docking_score>
-7.29558

> <r_i_glide_ligand_efficiency>
-0.235341

> <r_i_glide_ligand_efficiency_sa>
-0.739297

> <r_i_glide_ligand_efficiency_ln>
-1.64538

> <r_i_glide_gscore>
-7.41508

> <r_i_glide_lipo>
-3.4444

> <r_i_glide_hbond>
-0.422252

> <r_i_glide_metal>
-0

> <r_i_glide_rewards>
-1.17494

> <r_i_glide_evdw>
-40.5812

> <r_i_glide_ecoul>
-4.98017

> <r_i_glide_erotb>
0.451646

> <r_i_glide_esite>
-0.0490557

> <r_i_glide_emodel>
-63.3272

> <r_i_glide_energy>
-45.5614

> <r_i_glide_einternal>
1.49004

> <i_i_glide_confnum>
248

> <i_i_glide_posenum>
98

> <r_i_glide_eff_state_penalty>
0.1195

> <r_i_glide_rmsd>
0.105254

> <s_glide_core_constrain_type>
snapped_core_restrain
$$$$