lig_5j
                    3D
 Schrodinger Suite 2021-1.
 37 39  0  0  1  0            999 V2000
  -39.0455  -11.3274    4.7224 H   0  0  0  0  0  0
  -38.9947  -11.6554    5.6062 O   0  0  0  0  0  0
  -38.6993  -10.5885    6.4643 C   0  0  0  0  0  0
  -38.6902  -10.9401    7.9273 C   0  0  0  0  0  0
  -38.1918  -10.0260    8.8726 C   0  0  0  0  0  0
  -37.7895   -9.0695    8.5667 H   0  0  0  0  0  0
  -38.2463  -10.3216   10.2404 C   0  0  0  0  0  0
  -37.8586   -9.5893   10.9385 H   0  0  0  0  0  0
  -38.8140  -11.5378   10.6818 C   0  0  0  0  0  0
  -38.8867  -11.8439   12.1283 C   0  0  0  0  0  0
  -39.6027  -12.8560   12.5457 N   0  0  0  0  0  0
  -39.6447  -13.1524   13.9073 C   0  0  0  0  0  0
  -40.4504  -14.2294   14.3334 C   0  0  0  0  0  0
  -41.0015  -14.8176   13.6136 H   0  0  0  0  0  0
  -40.5616  -14.5309   15.6993 C   0  0  0  0  0  0
  -41.1965  -15.3464   16.0323 H   0  0  0  0  0  0
  -39.8657  -13.7566   16.6507 C   0  0  0  0  0  0
  -40.0033  -14.0557   17.9617 F   0  0  0  0  0  0
  -39.0434  -12.6852   16.2340 C   0  0  0  0  0  0
  -38.3901  -11.9520   17.1649 F   0  0  0  0  0  0
  -38.9278  -12.3877   14.8590 C   0  0  0  0  0  0
  -38.0625  -11.2772   14.3385 C   0  0  0  0  0  0
  -37.3009  -10.6135   15.0361 O   0  0  0  0  0  0
  -38.1527  -11.0613   13.0209 N   0  0  0  0  0  0
  -37.5458  -10.3469   12.6378 H   0  0  0  0  0  0
  -39.3166  -12.4543    9.7260 C   0  0  0  0  0  0
  -39.7587  -13.3965   10.0314 H   0  0  0  0  0  0
  -39.2540  -12.1567    8.3641 C   0  0  0  0  0  0
  -39.6711  -12.8618    7.6541 H   0  0  0  0  0  0
  -37.3496  -10.0815    5.9846 C   0  0  0  0  0  0
  -37.0829   -9.1232    6.4288 H   0  0  0  0  0  0
  -37.3301   -9.9408    4.8993 H   0  0  0  0  0  0
  -36.5585  -10.7976    6.2120 H   0  0  0  0  0  0
  -39.8129   -9.5986    6.2703 C   0  0  0  0  0  0
  -39.6582   -8.6630    6.8130 H   0  0  0  0  0  0
  -39.8340   -9.3811    5.2108 H   0  0  0  0  0  0
  -40.7849  -10.0135    6.5500 H   0  0  0  0  0  0
  1  2  1  0  0  0
  2  3  1  0  0  0
  3  4  1  0  0  0
  3 30  1  0  0  0
  3 34  1  0  0  0
  4 28  1  0  0  0
  4  5  2  0  0  0
  5  6  1  0  0  0
  5  7  1  0  0  0
  7  8  1  0  0  0
  7  9  2  0  0  0
  9 10  1  0  0  0
  9 26  1  0  0  0
 10 24  1  0  0  0
 10 11  2  0  0  0
 11 12  1  0  0  0
 12 21  2  0  0  0
 12 13  1  0  0  0
 13 14  1  0  0  0
 13 15  2  0  0  0
 15 16  1  0  0  0
 15 17  1  0  0  0
 17 18  1  0  0  0
 17 19  2  0  0  0
 19 20  1  0  0  0
 19 21  1  0  0  0
 21 22  1  0  0  0
 22 23  2  0  0  0
 22 24  1  0  0  0
 24 25  1  0  0  0
 26 27  1  0  0  0
 26 28  2  0  0  0
 28 29  1  0  0  0
 30 31  1  0  0  0
 30 32  1  0  0  0
 30 33  1  0  0  0
 34 35  1  0  0  0
 34 36  1  0  0  0
 34 37  1  0  0  0
M  END
> <s_m_source_file>
ligprep_tnks2.smi

> <i_m_source_file_index>
14

> <i_lp_mmshare_version>
53161

> <i_f3d_flags>
0

> <s_epik_input>
W09IXUMoW0NIM10pKFtDSDNdKWMxW2NIXVtjSF1jKFtjSF1bY0hdMSktYyhuMilbbkhdYyg9TyljKGMyMyljKEYpYyhGKVtjSF1bY0hdMw==

> <s_epik_cmdline>
J2VwaWtfcHl0aG9uJywgJy1waHQnLCAnMC4wJywgJy1waCcsICc3LjQnLCAnLXRuJywgJzgnLCAnLW1hJywgJzUwMCcsICctaW1hZScsICc8aW5maWxlLm1hZT4nLCAnLW9tYWUnLCAnPG91dGZpbGUubWFlPic=

> <r_lp_tautomer_probability>
1

> <r_epik_Ionization_Penalty>
0.0679

> <r_epik_Ionization_Penalty_Charging>
0.0679

> <r_epik_Ionization_Penalty_Neutral>
0

> <r_epik_State_Penalty>
-0

> <r_epik_Charging_Adjusted_Penalty>
0.0679192

> <i_epik_Tot_Q>
0

> <i_epik_Tot_abs_Q>
0

> <s_lp_Force_Field>
S-OPLS

> <r_lp_Energy>
17.2654

> <b_lp_Chiralities_Consistent>
1

> <s_lp_Variant>
lig_5j-1

> <s_i_glide_gridfile>
glide-grid_4UI5-TNKS2

> <i_i_glide_lignum>
14

> <i_i_glide_rotatable_bonds>
3

> <r_i_docking_score>
-11.6557

> <r_i_glide_ligand_efficiency>
-0.506768

> <r_i_glide_ligand_efficiency_sa>
-1.44118

> <r_i_glide_ligand_efficiency_ln>
-2.81844

> <r_i_glide_gscore>
-11.6557

> <r_i_glide_lipo>
-4.40058

> <r_i_glide_hbond>
-0.838246

> <r_i_glide_metal>
-0

> <r_i_glide_rewards>
-3.10516

> <r_i_glide_evdw>
-43.7128

> <r_i_glide_ecoul>
-10.0494

> <r_i_glide_erotb>
0.390728

> <r_i_glide_esite>
-0.00935466

> <r_i_glide_emodel>
-81.7125

> <r_i_glide_energy>
-53.7622

> <r_i_glide_einternal>
0.285025

> <i_i_glide_confnum>
4

> <i_i_glide_posenum>
3

> <r_i_glide_eff_state_penalty>
-0

> <r_i_glide_rmsd>
0.100924

> <s_glide_core_constrain_type>
snapped_core_restrain
$$$$