lig_4147
                    3D
 Schrodinger Suite 2021-1.
 40 43  0  0  1  0            999 V2000
  -17.0036  -10.3483   37.6058 H   0  0  0  0  0  0
  -17.8083  -10.4865   38.3139 C   0  0  0  0  0  0
  -17.7910   -9.8040   39.4482 N   0  0  0  0  0  0
  -18.8936  -10.2265   40.1143 N   0  0  0  0  0  0
  -19.1836   -9.6864   41.4239 C   0  0  0  0  0  0
  -20.0271  -10.2157   41.8650 H   0  0  0  0  0  0
  -19.4405   -8.6314   41.3364 H   0  0  0  0  0  0
  -18.3088   -9.7968   42.0699 H   0  0  0  0  0  0
  -19.6143  -11.1572   39.3980 C   0  0  0  0  0  0
  -20.5257  -11.5941   39.7831 H   0  0  0  0  0  0
  -18.9487  -11.3354   38.2195 C   0  0  0  0  0  0
  -19.3186  -12.2329   37.1249 C   0  0  0  0  0  0
  -19.8853  -13.4816   37.1430 C   0  0  0  0  0  0
  -20.2961  -14.3208   38.3149 C   0  0  0  0  0  0
  -20.9596  -13.7764   38.9848 H   0  0  0  0  0  0
  -20.8266  -15.2209   38.0005 H   0  0  0  0  0  0
  -19.4314  -14.6435   38.8944 H   0  0  0  0  0  0
  -20.0422  -13.9741   35.8580 N   0  0  0  0  0  0
  -19.5996  -13.0258   35.0275 C   0  0  0  0  0  0
  -19.4983  -12.9191   33.5962 C   0  0  0  0  0  0
  -19.8871  -13.9689   32.7320 N   0  0  0  0  0  0
  -19.4064  -13.9993   31.3506 C   0  0  0  0  0  0
  -20.0383  -13.3608   30.7336 H   0  0  0  0  0  0
  -18.3846  -13.6202   31.2935 H   0  0  0  0  0  0
  -19.4306  -15.4395   30.8106 C   0  0  0  0  0  0
  -18.7055  -16.0635   31.3315 H   0  0  0  0  0  0
  -19.1349  -15.4473   29.7612 H   0  0  0  0  0  0
  -20.7378  -15.9879   30.9582 O   0  0  0  0  0  0
  -21.1342  -16.0560   32.3270 C   0  0  0  0  0  0
  -20.4657  -16.7092   32.8906 H   0  0  0  0  0  0
  -22.1242  -16.5061   32.3878 H   0  0  0  0  0  0
  -21.1673  -14.6428   32.9372 C   0  0  0  0  0  0
  -21.4444  -14.7153   33.9834 H   0  0  0  0  0  0
  -21.9500  -14.0609   32.4494 H   0  0  0  0  0  0
  -19.0037  -11.8497   33.0305 N   0  0  0  0  0  0
  -18.5664  -10.8132   33.8126 C   0  0  0  0  0  0
  -18.1722   -9.9571   33.2744 H   0  0  0  0  0  0
  -18.6283  -10.8043   35.1767 C   0  0  0  0  0  0
  -18.3051   -9.9711   35.7881 H   0  0  0  0  0  0
  -19.1327  -11.9148   35.7831 N   0  0  0  0  0  0
  1  2  1  0  0  0
  2 11  1  0  0  0
  2  3  2  0  0  0
  3  4  1  0  0  0
  4  5  1  0  0  0
  4  9  1  0  0  0
  5  6  1  0  0  0
  5  7  1  0  0  0
  5  8  1  0  0  0
  9 10  1  0  0  0
  9 11  2  0  0  0
 11 12  1  0  0  0
 12 40  1  0  0  0
 12 13  2  0  0  0
 13 14  1  0  0  0
 13 18  1  0  0  0
 14 15  1  0  0  0
 14 16  1  0  0  0
 14 17  1  0  0  0
 18 19  2  0  0  0
 19 40  1  0  0  0
 19 20  1  0  0  0
 20 21  1  0  0  0
 20 35  2  0  0  0
 21 32  1  0  0  0
 21 22  1  0  0  0
 22 23  1  0  0  0
 22 24  1  0  0  0
 22 25  1  0  0  0
 25 26  1  0  0  0
 25 27  1  0  0  0
 25 28  1  0  0  0
 28 29  1  0  0  0
 29 30  1  0  0  0
 29 31  1  0  0  0
 29 32  1  0  0  0
 32 33  1  0  0  0
 32 34  1  0  0  0
 35 36  1  0  0  0
 36 37  1  0  0  0
 36 38  2  0  0  0
 38 39  1  0  0  0
 38 40  1  0  0  0
M  END
> <s_m_source_file>
ligprep_pde10.smi

> <i_m_source_file_index>
18

> <i_lp_mmshare_version>
53161

> <i_f3d_flags>
0

> <s_epik_input>
W0NIM11uMW5bY0hdYyhbY0hdMSktYyhjKG4yKVtDSDNdKW4oYzIzKVtjSF1bY0hdbmMzTjRbQ0gyXVtDSDJdT1tDSDJdW0NIMl00

> <s_epik_cmdline>
J2VwaWtfcHl0aG9uJywgJy1waHQnLCAnMC4wJywgJy1waCcsICc3LjQnLCAnLXRuJywgJzgnLCAnLW1hJywgJzUwMCcsICctaW1hZScsICc8aW5maWxlLm1hZT4nLCAnLW9tYWUnLCAnPG91dGZpbGUubWFlPic=

> <r_lp_tautomer_probability>
1

> <r_epik_Ionization_Penalty>
0.0004

> <r_epik_Ionization_Penalty_Charging>
0.0003

> <r_epik_Ionization_Penalty_Neutral>
0

> <r_epik_State_Penalty>
-0

> <r_epik_Charging_Adjusted_Penalty>
0.000349532

> <i_epik_Tot_Q>
0

> <i_epik_Tot_abs_Q>
0

> <s_lp_Force_Field>
S-OPLS

> <r_lp_Energy>
27.765

> <b_lp_Chiralities_Consistent>
1

> <s_lp_Variant>
lig_4147-1

> <s_i_glide_gridfile>
glide-grid_4BBX-PDE10

> <i_i_glide_lignum>
19

> <i_i_glide_rotatable_bonds>
2

> <r_i_docking_score>
-7.34932

> <r_i_glide_ligand_efficiency>
-0.33406

> <r_i_glide_ligand_efficiency_sa>
-0.93605

> <r_i_glide_ligand_efficiency_ln>
-1.79644

> <r_i_glide_gscore>
-7.34932

> <r_i_glide_lipo>
-2.8053

> <r_i_glide_hbond>
-0.287078

> <r_i_glide_metal>
-0

> <r_i_glide_rewards>
-2.4528

> <r_i_glide_evdw>
-32.9527

> <r_i_glide_ecoul>
-3.79212

> <r_i_glide_erotb>
0.412309

> <r_i_glide_esite>
0

> <r_i_glide_emodel>
-52.404

> <r_i_glide_energy>
-36.7448

> <r_i_glide_einternal>
0.283562

> <i_i_glide_confnum>
6

> <i_i_glide_posenum>
1

> <r_i_glide_eff_state_penalty>
-0

> <r_i_glide_rmsd>
0.10274

> <s_glide_core_constrain_type>
snapped_core_restrain
$$$$