lig_23469
                    3D
 Schrodinger Suite 2021-1.
 41 43  0  0  1  0            999 V2000
   52.4732    5.9505    5.4533 H   0  0  0  0  0  0
   51.7869    6.3526    4.7258 C   0  0  0  0  0  0
   50.4422    5.9427    4.7279 C   0  0  0  0  0  0
   49.5526    6.4701    3.7757 C   0  0  0  0  0  0
   50.0020    7.4044    2.8139 C   0  0  0  0  0  0
   51.3502    7.7988    2.7969 C   0  0  0  0  0  0
   52.2281    7.2844    3.7691 C   0  0  0  0  0  0
   53.2447    7.6136    3.7743 H   0  0  0  0  0  0
   51.7166    8.4869    2.0505 H   0  0  0  0  0  0
   49.0579    7.8299    1.7461 C   0  0  0  0  0  0
   48.5624    6.9358    1.0651 O   0  0  0  0  0  0
   48.8243    9.1445    1.5368 N   0  0  0  0  0  0
   49.4254    9.7800    2.0422 H   0  0  0  0  0  0
   47.5569    9.7047    1.1399 C   0  0  0  0  0  0
   46.4977    8.9372    0.5903 C   0  0  0  0  0  0
   45.2535    9.5213    0.3017 C   0  0  0  0  0  0
   45.0286   10.8812    0.5698 C   0  0  0  0  0  0
   46.0525   11.6807    1.1246 C   0  0  0  0  0  0
   47.3157   11.0791    1.3798 C   0  0  0  0  0  0
   48.1105   11.6780    1.7985 H   0  0  0  0  0  0
   45.7786   13.0852    1.4656 C   0  0  0  0  0  0
   46.2220   13.8527    2.5108 C   0  0  0  0  0  0
   45.7241   15.1810    2.5470 C   0  0  0  0  0  0
   44.8543   15.4480    1.5241 C   0  0  0  0  0  0
   44.6630   14.0366    0.4949 S   0  0  0  0  0  0
   44.0982   16.6825    1.2018 C   0  0  0  0  0  0
   43.5695   16.8067    0.0779 O   0  0  0  0  0  0
   44.0232   17.5902    2.0673 O   0  5  0  0  0  0
   46.0238   16.0604    3.5156 O   0  0  0  0  0  0
   47.2441   16.7550    3.3573 C   0  0  0  0  0  0
   47.1339   17.5272    2.5940 H   0  0  0  0  0  0
   48.0455   16.0865    3.0402 H   0  0  0  0  0  0
   47.6231   17.3989    4.6888 C   0  0  0  0  0  0
   48.7230   17.9972    4.7156 O   0  0  0  0  0  0
   46.8235   17.2888    5.6547 O   0  5  0  0  0  0
   47.3447   13.2299    3.9143 Br  0  0  0  0  0  0
   44.0526   11.2973    0.3704 H   0  0  0  0  0  0
   44.4600    8.9165   -0.1140 H   0  0  0  0  0  0
   46.5898    7.8873    0.3725 H   0  0  0  0  0  0
   48.5245    6.1350    3.7679 H   0  0  0  0  0  0
   50.0928    5.2201    5.4519 H   0  0  0  0  0  0
  1  2  1  0  0  0
  2  7  1  0  0  0
  2  3  2  0  0  0
  3  4  1  0  0  0
  3 41  1  0  0  0
  4  5  2  0  0  0
  4 40  1  0  0  0
  5  6  1  0  0  0
  5 10  1  0  0  0
  6  7  2  0  0  0
  6  9  1  0  0  0
  7  8  1  0  0  0
 10 11  2  0  0  0
 10 12  1  0  0  0
 12 13  1  0  0  0
 12 14  1  0  0  0
 14 19  1  0  0  0
 14 15  2  0  0  0
 15 16  1  0  0  0
 15 39  1  0  0  0
 16 17  2  0  0  0
 16 38  1  0  0  0
 17 18  1  0  0  0
 17 37  1  0  0  0
 18 19  2  0  0  0
 18 21  1  0  0  0
 19 20  1  0  0  0
 21 25  1  0  0  0
 21 22  2  0  0  0
 22 23  1  0  0  0
 22 36  1  0  0  0
 23 24  2  0  0  0
 23 29  1  0  0  0
 24 25  1  0  0  0
 24 26  1  0  0  0
 26 27  2  0  0  0
 26 28  1  0  0  0
 29 30  1  0  0  0
 30 31  1  0  0  0
 30 32  1  0  0  0
 30 33  1  0  0  0
 33 34  2  0  0  0
 33 35  1  0  0  0
M  CHG  2  28  -1  35  -1
M  END
> <s_m_source_file>
ligprep_ptp1b.smi

> <i_m_source_file_index>
8

> <i_lp_mmshare_version>
53161

> <i_f3d_flags>
0

> <s_epik_input>
W2NIXTFbY0hdW2NIXVtjSF1bY0hdYzFDKD1PKVtOSF1jMltjSF1bY0hdW2NIXWMoW2NIXTIpLWMzYyhCciljKGMoczMpQyg9TylbT0hdKU9bQ0gyXUMoPU8pW09IXQ==

> <s_epik_cmdline>
J2VwaWtfcHl0aG9uJywgJy1waHQnLCAnMC4wJywgJy1waCcsICc3LjQnLCAnLXRuJywgJzgnLCAnLW1hJywgJzUwMCcsICctaW1hZScsICc8aW5maWxlLm1hZT4nLCAnLW9tYWUnLCAnPG91dGZpbGUubWFlPic=

> <r_lp_tautomer_probability>
1

> <r_epik_Ionization_Penalty>
0.0001

> <r_epik_Ionization_Penalty_Charging>
0.0001

> <r_epik_Ionization_Penalty_Neutral>
0

> <r_epik_State_Penalty>
-0

> <r_epik_Charging_Adjusted_Penalty>
9.21585e-05

> <i_epik_Tot_Q>
-2

> <i_epik_Tot_abs_Q>
2

> <s_lp_Force_Field>
S-OPLS

> <r_lp_Energy>
58.7305

> <b_lp_Chiralities_Consistent>
1

> <s_lp_Variant>
lig_23469-1

> <s_i_glide_gridfile>
glide-grid_2QBS-PTP1B

> <i_i_glide_lignum>
8

> <i_i_glide_rotatable_bonds>
8

> <r_i_docking_score>
-7.6968

> <r_i_glide_ligand_efficiency>
-0.265407

> <r_i_glide_ligand_efficiency_sa>
-0.815414

> <r_i_glide_ligand_efficiency_ln>
-1.76237

> <r_i_glide_gscore>
-7.6968

> <r_i_glide_lipo>
-1.49303

> <r_i_glide_hbond>
-1.19633

> <r_i_glide_metal>
-0

> <r_i_glide_rewards>
0.483876

> <r_i_glide_evdw>
-42.3361

> <r_i_glide_ecoul>
-29.6659

> <r_i_glide_erotb>
0.719604

> <r_i_glide_esite>
-0.0941133

> <r_i_glide_emodel>
-113.424

> <r_i_glide_energy>
-72.002

> <r_i_glide_einternal>
7.23848

> <i_i_glide_confnum>
2

> <i_i_glide_posenum>
6

> <r_i_glide_eff_state_penalty>
-0

> <r_i_glide_rmsd>
0.0960507

> <s_glide_core_constrain_type>
snapped_core_restrain
$$$$