lig_50
                    3D
 Schrodinger Suite 2021-1.
 33 34  0  0  1  0            999 V2000
   17.8727   -1.2230   -9.7230 H   0  0  0  0  0  0
   18.8475   -0.9905  -10.1239 C   0  0  0  0  0  0
   19.5422   -1.9837  -10.8382 C   0  0  0  0  0  0
   18.9801   -3.1949  -11.0487 F   0  0  0  0  0  0
   20.8258   -1.7140  -11.3527 C   0  0  0  0  0  0
   21.3649   -2.4759  -11.9084 H   0  0  0  0  0  0
   21.3995   -0.4494  -11.1394 C   0  0  0  0  0  0
   22.6273   -0.1748  -11.6795 O   0  0  0  0  0  0
   23.7730   -0.3226  -10.9202 C   0  0  0  0  0  0
   23.7609   -0.8418   -9.6005 C   0  0  0  0  0  0
   22.8379   -1.1511   -9.1204 H   0  0  0  0  0  0
   24.9689   -0.9996   -8.8934 C   0  0  0  0  0  0
   24.9620   -1.4142   -7.8920 H   0  0  0  0  0  0
   26.1912   -0.6475   -9.4984 C   0  0  0  0  0  0
   27.7009   -0.9476   -8.5581 S   0  0  0  0  0  0
   27.4128   -1.9095   -7.4837 O   0  0  0  0  0  0
   28.7931   -1.2652   -9.4849 O   0  0  0  0  0  0
   28.0363    0.6820   -7.7890 C   0  0  0  0  0  0
   28.9889    0.6120   -7.2680 H   0  0  0  0  0  0
   28.1064    1.4614   -8.5448 H   0  0  0  0  0  0
   27.2411    0.9145   -7.0763 H   0  0  0  0  0  0
   26.2254   -0.0447  -10.7859 C   0  0  0  0  0  0
   27.5391    0.4070  -11.4278 C   0  0  0  0  0  0
   28.1977    0.8902  -10.7066 H   0  0  0  0  0  0
   28.0306   -0.4648  -11.8570 H   0  0  0  0  0  0
   27.4180    1.1364  -12.2287 H   0  0  0  0  0  0
   24.9963    0.0943  -11.4891 C   0  0  0  0  0  0
   24.9801    0.6630  -12.8218 C   0  0  0  0  0  0
   24.9850    1.1191  -13.8810 N   0  0  0  0  0  0
   20.6946    0.5516  -10.4325 C   0  0  0  0  0  0
   21.1349    1.5275  -10.2825 H   0  0  0  0  0  0
   19.4142    0.2759   -9.9221 C   0  0  0  0  0  0
   18.5438    1.5029   -9.0869 Cl  0  0  0  0  0  0
  1  2  1  0  0  0
  2 32  1  0  0  0
  2  3  2  0  0  0
  3  4  1  0  0  0
  3  5  1  0  0  0
  5  6  1  0  0  0
  5  7  2  0  0  0
  7  8  1  0  0  0
  7 30  1  0  0  0
  8  9  1  0  0  0
  9 27  1  0  0  0
  9 10  2  0  0  0
 10 11  1  0  0  0
 10 12  1  0  0  0
 12 13  1  0  0  0
 12 14  2  0  0  0
 14 15  1  0  0  0
 14 22  1  0  0  0
 15 16  2  0  0  0
 15 17  2  0  0  0
 15 18  1  0  0  0
 18 19  1  0  0  0
 18 20  1  0  0  0
 18 21  1  0  0  0
 22 23  1  0  0  0
 22 27  2  0  0  0
 23 24  1  0  0  0
 23 25  1  0  0  0
 23 26  1  0  0  0
 27 28  1  0  0  0
 28 29  3  0  0  0
 30 31  1  0  0  0
 30 32  2  0  0  0
 32 33  1  0  0  0
M  END
> <s_m_source_file>
ligprep_hif2a.smi

> <i_m_source_file_index>
35

> <i_lp_mmshare_version>
53161

> <i_f3d_flags>
0

> <s_epik_input>
RmMxW2NIXWMoQ2wpW2NIXWMoW2NIXTEpT2MyW2NIXVtjSF1jKFMoPU8pKD1PKVtDSDNdKWMoW0NIM10pYzJDI04=

> <s_epik_cmdline>
J2VwaWtfcHl0aG9uJywgJy1waHQnLCAnMC4wJywgJy1waCcsICc3LjQnLCAnLXRuJywgJzgnLCAnLW1hJywgJzUwMCcsICctaW1hZScsICc8aW5maWxlLm1hZT4nLCAnLW9tYWUnLCAnPG91dGZpbGUubWFlPic=

> <r_lp_tautomer_probability>
1

> <r_epik_Ionization_Penalty>
0

> <r_epik_Ionization_Penalty_Charging>
0

> <r_epik_Ionization_Penalty_Neutral>
0

> <r_epik_State_Penalty>
-0

> <r_epik_Charging_Adjusted_Penalty>
0

> <i_epik_Tot_Q>
0

> <i_epik_Tot_abs_Q>
0

> <s_lp_Force_Field>
S-OPLS

> <r_lp_Energy>
19.7308

> <b_lp_Chiralities_Consistent>
1

> <s_lp_Variant>
lig_50-1

> <s_i_glide_gridfile>
glide-grid_5TBM-HIF2a

> <i_i_glide_lignum>
35

> <i_i_glide_rotatable_bonds>
3

> <r_i_docking_score>
-9.75405

> <r_i_glide_ligand_efficiency>
-0.443366

> <r_i_glide_ligand_efficiency_sa>
-1.24233

> <r_i_glide_ligand_efficiency_ln>
-2.38425

> <r_i_glide_gscore>
-9.75405

> <r_i_glide_lipo>
-4.2894

> <r_i_glide_hbond>
0

> <r_i_glide_metal>
-0

> <r_i_glide_rewards>
-3.15777

> <r_i_glide_evdw>
-49.7466

> <r_i_glide_ecoul>
-2.07636

> <r_i_glide_erotb>
0.4919

> <r_i_glide_esite>
0

> <r_i_glide_emodel>
-84.3211

> <r_i_glide_energy>
-51.8229

> <r_i_glide_einternal>
8.03358e-08

> <i_i_glide_confnum>
1

> <i_i_glide_posenum>
1

> <r_i_glide_eff_state_penalty>
-0

> <r_i_glide_rmsd>
0.0848321

> <s_glide_core_constrain_type>
snapped_core_restrain
$$$$