lig_48009208
                    3D
 Schrodinger Suite 2021-1.
 48 52  0  0  1  0            999 V2000
   11.9395    1.1992  -46.9435 C   0  0  0  0  0  0
   11.5189    1.8551  -45.6439 C   0  0  0  0  0  0
   12.1887    1.5838  -44.4369 C   0  0  0  0  0  0
   13.2147    0.7873  -44.1518 N   0  0  0  0  0  0
   13.4145    0.9130  -42.7744 N   0  0  0  0  0  0
   12.4850    1.7324  -42.2634 C   0  0  0  0  0  0
   11.7730    2.1726  -43.3131 N   0  0  0  0  0  0
   10.7243    3.1053  -43.3185 C   0  0  0  0  0  0
   10.2793    3.9009  -42.2350 C   0  0  0  0  0  0
    9.2326    4.8345  -42.3436 C   0  0  0  0  0  0
    8.5631    5.0024  -43.5654 C   0  0  0  0  0  0
    8.9804    4.2456  -44.6709 C   0  0  0  0  0  0
   10.0492    3.3291  -44.5609 C   0  0  0  0  0  0
   10.4509    2.6826  -45.6865 N   0  0  0  0  0  0
    8.8243    5.6266  -41.1082 C   0  0  0  0  0  0
    8.3328    6.9672  -41.4024 N   0  0  0  0  0  0
    9.3901    7.8580  -41.8689 C   0  0  0  0  0  0
    8.8715    9.2827  -42.1606 C   0  0  0  0  0  0
    8.2252    9.8020  -41.0042 O   0  0  0  0  0  0
    7.1583    8.9730  -40.5530 C   0  0  0  0  0  0
    7.6823    7.5592  -40.2473 C   0  0  0  0  0  0
   12.3584    1.9638  -40.8202 C   0  0  0  0  0  0
   13.4219    2.5577  -40.1039 C   0  0  0  0  0  0
   13.3167    2.7839  -38.7126 C   0  0  0  0  0  0
   12.1234    2.4506  -38.0452 C   0  0  0  0  0  0
   11.0946    1.7941  -38.7341 C   0  0  0  0  0  0
   11.2085    1.5338  -40.1086 C   0  0  0  0  0  0
    9.9223    0.7019  -40.8810 Cl  0  0  0  0  0  0
   11.9243    2.7796  -36.7512 F   0  0  0  0  0  0
   12.9366    1.5433  -47.2244 H   0  0  0  0  0  0
   11.9870    0.1145  -46.8325 H   0  0  0  0  0  0
   11.2492    1.4256  -47.7525 H   0  0  0  0  0  0
   10.7687    3.8395  -41.2777 H   0  0  0  0  0  0
    7.7563    5.7129  -43.6743 H   0  0  0  0  0  0
    8.5059    4.3808  -45.6329 H   0  0  0  0  0  0
    9.6741    5.6784  -40.4114 H   0  0  0  0  0  0
    8.0705    5.0234  -40.5948 H   0  0  0  0  0  0
    9.8475    7.4628  -42.7748 H   0  0  0  0  0  0
   10.1697    7.9175  -41.1085 H   0  0  0  0  0  0
    9.6999    9.9419  -42.4340 H   0  0  0  0  0  0
    8.1818    9.2790  -43.0023 H   0  0  0  0  0  0
    6.7246    9.4103  -39.6537 H   0  0  0  0  0  0
    6.3800    8.9272  -41.3200 H   0  0  0  0  0  0
    8.3800    7.5999  -39.4111 H   0  0  0  0  0  0
    6.8493    6.9244  -39.9394 H   0  0  0  0  0  0
   14.3247    2.8430  -40.6193 H   0  0  0  0  0  0
   14.1432    3.2495  -38.1872 H   0  0  0  0  0  0
   10.2077    1.5082  -38.1853 H   0  0  0  0  0  0
  1  2  1  0  0  0
  1 30  1  0  0  0
  1 31  1  0  0  0
  1 32  1  0  0  0
  2 14  2  0  0  0
  2  3  1  0  0  0
  3  7  1  0  0  0
  3  4  2  0  0  0
  4  5  1  0  0  0
  5  6  2  0  0  0
  6  7  1  0  0  0
  6 22  1  0  0  0
  7  8  1  0  0  0
  8 13  1  0  0  0
  8  9  2  0  0  0
  9 10  1  0  0  0
  9 33  1  0  0  0
 10 11  2  0  0  0
 10 15  1  0  0  0
 11 12  1  0  0  0
 11 34  1  0  0  0
 12 13  2  0  0  0
 12 35  1  0  0  0
 13 14  1  0  0  0
 15 16  1  0  0  0
 15 36  1  0  0  0
 15 37  1  0  0  0
 16 21  1  0  0  0
 16 17  1  0  0  0
 17 18  1  0  0  0
 17 38  1  0  0  0
 17 39  1  0  0  0
 18 19  1  0  0  0
 18 40  1  0  0  0
 18 41  1  0  0  0
 19 20  1  0  0  0
 20 21  1  0  0  0
 20 42  1  0  0  0
 20 43  1  0  0  0
 21 44  1  0  0  0
 21 45  1  0  0  0
 22 27  1  0  0  0
 22 23  2  0  0  0
 23 24  1  0  0  0
 23 46  1  0  0  0
 24 25  2  0  0  0
 24 47  1  0  0  0
 25 26  1  0  0  0
 25 29  1  0  0  0
 26 27  2  0  0  0
 26 48  1  0  0  0
 27 28  1  0  0  0
M  END
> <s_m_source_file>
ligprep_pde2.smi

> <i_m_source_file_index>
2

> <i_lp_mmshare_version>
53161

> <i_f3d_flags>
0

> <s_epik_input>
Q2xjMVtjSF1jKEYpW2NIXVtjSF1jMS1jKG5uMiluKGMyMyljNGMobmMzW0NIM10pW2NIXVtjSF1jKFtjSF00KVtDSDJdTjVbQ0gyXVtDSDJdT1tDSDJdW0NIMl01

> <s_epik_cmdline>
J2VwaWtfcHl0aG9uJywgJy1waHQnLCAnMC4wJywgJy1waCcsICc3LjQnLCAnLXRuJywgJzgnLCAnLW1hJywgJzUwMCcsICctaW1hZScsICc8aW5maWxlLm1hZT4nLCAnLW9tYWUnLCAnPG91dGZpbGUubWFlPic=

> <r_epik_Ionization_Penalty>
0.1301

> <r_epik_Ionization_Penalty_Charging>
0

> <r_epik_Ionization_Penalty_Neutral>
0.1301

> <r_epik_State_Penalty>
0.1195

> <r_epik_Charging_Adjusted_Penalty>
0.119465

> <i_epik_Tot_Q>
0

> <i_epik_Tot_abs_Q>
0

> <s_lp_Force_Field>
S-OPLS

> <r_lp_Energy>
45.6613

> <b_lp_Chiralities_Consistent>
1

> <s_lp_Variant>
lig_48009208-1

> <s_i_glide_gridfile>
glide-grid_6C7E-PDE2

> <i_i_glide_lignum>
2

> <i_i_glide_rotatable_bonds>
3

> <r_i_docking_score>
-7.4317

> <r_i_glide_ligand_efficiency>
-0.256266

> <r_i_glide_ligand_efficiency_sa>
-0.787329

> <r_i_glide_ligand_efficiency_ln>
-1.70167

> <r_i_glide_gscore>
-7.5512

> <r_i_glide_lipo>
-3.63769

> <r_i_glide_hbond>
-0.32

> <r_i_glide_metal>
-0

> <r_i_glide_rewards>
-1.27138

> <r_i_glide_evdw>
-35.6747

> <r_i_glide_ecoul>
-5.43158

> <r_i_glide_erotb>
0.348648

> <r_i_glide_esite>
-0.0723072

> <r_i_glide_emodel>
-55.7839

> <r_i_glide_energy>
-41.1063

> <r_i_glide_einternal>
0.138546

> <i_i_glide_confnum>
4

> <i_i_glide_posenum>
2

> <r_i_glide_eff_state_penalty>
0.1195

> <r_i_glide_rmsd>
0.0932634

> <s_glide_core_constrain_type>
snapped_core_restrain
$$$$