lig_CHEMBL3265015
                    3D
 Schrodinger Suite 2021-1.
 51 54  0  0  1  0            999 V2000
    6.2297   -0.8399   17.3676 H   0  0  0  0  0  0
    5.6039   -0.5245   16.5501 C   0  0  0  0  0  0
    5.8640    0.4225   15.6038 C   0  0  0  0  0  0
    6.7075    1.0670   15.4182 H   0  0  0  0  0  0
    4.7246    0.5152   14.8322 N   0  0  0  0  0  0
    3.8141   -0.4405   15.3229 C   0  0  0  0  0  0
    4.3471   -1.0919   16.3525 N   0  0  0  0  0  0
    2.5479   -0.4918   14.6782 C   0  0  0  0  0  0
    1.6114   -1.4051   15.2014 N   0  0  0  0  0  0
    2.0053   -1.9638   15.9502 H   0  0  0  0  0  0
    0.2324   -1.5861   15.0058 C   0  0  0  0  0  0
   -0.3805   -2.6086   15.7562 C   0  0  0  0  0  0
    0.2055   -3.2105   16.4385 H   0  0  0  0  0  0
   -1.7605   -2.8573   15.6450 C   0  0  0  0  0  0
   -2.2109   -3.6420   16.2332 H   0  0  0  0  0  0
   -2.5511   -2.0807   14.7724 C   0  0  0  0  0  0
   -3.8929   -2.3358   14.6783 O   0  0  0  0  0  0
   -4.2340   -3.1164   13.5431 C   0  0  0  0  0  0
   -5.3085   -3.2970   13.5357 H   0  0  0  0  0  0
   -3.9707   -2.6138   12.6114 H   0  0  0  0  0  0
   -3.7321   -4.0844   13.5700 H   0  0  0  0  0  0
   -1.9657   -1.0394   14.0205 C   0  0  0  0  0  0
   -2.8057   -0.2955   13.2155 O   0  0  0  0  0  0
   -2.2222    0.6816   12.3645 C   0  0  0  0  0  0
   -2.9998    1.1316   11.7486 H   0  0  0  0  0  0
   -1.7548    1.4816   12.9414 H   0  0  0  0  0  0
   -1.4850    0.2405   11.6910 H   0  0  0  0  0  0
   -0.5711   -0.8058   14.1416 C   0  0  0  0  0  0
   -0.1272   -0.0072   13.5740 H   0  0  0  0  0  0
    2.2585    0.2870   13.6690 N   0  0  0  0  0  0
    3.1740    1.2335   13.2378 C   0  0  0  0  0  0
    2.7119    2.1352   12.1403 C   0  0  0  0  0  0
    1.3445    2.5019   12.1006 C   0  0  0  0  0  0
    0.6633    2.1550   12.8671 H   0  0  0  0  0  0
    0.8323    3.3279   11.0860 C   0  0  0  0  0  0
   -0.2123    3.5974   11.1146 H   0  0  0  0  0  0
    1.6816    3.8309   10.0728 C   0  0  0  0  0  0
    1.1172    4.7264    9.0224 C   0  0  0  0  0  0
    1.7195    5.7232    8.6350 O   0  0  0  0  0  0
   -0.0483    4.3314    8.5010 N   0  0  0  0  0  0
   -0.4702    3.4719    8.8170 H   0  0  0  0  0  0
   -0.4712    4.8663    7.7561 H   0  0  0  0  0  0
    3.0366    3.5187   10.1076 C   0  0  0  0  0  0
    3.6891    3.9292    9.3509 H   0  0  0  0  0  0
    3.5470    2.6856   11.1172 C   0  0  0  0  0  0
    5.0241    2.4485   11.0499 C   0  0  0  0  0  0
    5.4576    3.0843   11.8138 H   0  0  0  0  0  0
    5.2621    1.3923   11.1837 H   0  0  0  0  0  0
    5.4288    2.7940   10.1065 H   0  0  0  0  0  0
    4.4103    1.3553   13.8201 C   0  0  0  0  0  0
    5.1531    2.1005   13.5886 H   0  0  0  0  0  0
  1  2  1  0  0  0
  2  7  1  0  0  0
  2  3  2  0  0  0
  3  4  1  0  0  0
  3  5  1  0  0  0
  5 50  1  0  0  0
  5  6  1  0  0  0
  6  7  2  0  0  0
  6  8  1  0  0  0
  8  9  1  0  0  0
  8 30  2  0  0  0
  9 10  1  0  0  0
  9 11  1  0  0  0
 11 28  1  0  0  0
 11 12  2  0  0  0
 12 13  1  0  0  0
 12 14  1  0  0  0
 14 15  1  0  0  0
 14 16  2  0  0  0
 16 17  1  0  0  0
 16 22  1  0  0  0
 17 18  1  0  0  0
 18 19  1  0  0  0
 18 20  1  0  0  0
 18 21  1  0  0  0
 22 23  1  0  0  0
 22 28  2  0  0  0
 23 24  1  0  0  0
 24 25  1  0  0  0
 24 26  1  0  0  0
 24 27  1  0  0  0
 28 29  1  0  0  0
 30 31  1  0  0  0
 31 32  1  0  0  0
 31 50  2  0  0  0
 32 45  1  0  0  0
 32 33  2  0  0  0
 33 34  1  0  0  0
 33 35  1  0  0  0
 35 36  1  0  0  0
 35 37  2  0  0  0
 37 38  1  0  0  0
 37 43  1  0  0  0
 38 39  2  0  0  0
 38 40  1  0  0  0
 40 41  1  0  0  0
 40 42  1  0  0  0
 43 44  1  0  0  0
 43 45  2  0  0  0
 45 46  1  0  0  0
 46 47  1  0  0  0
 46 48  1  0  0  0
 46 49  1  0  0  0
 50 51  1  0  0  0
M  END
> <s_m_source_file>
ligprep_syk.smi

> <i_m_source_file_index>
22

> <i_lp_mmshare_version>
53161

> <i_f3d_flags>
0

> <s_epik_input>
W0NIM11PYyhbY0hdMSljKE9bQ0gzXSlbY0hdW2NIXWMxW05IXWMoYyhuMjMpbltjSF1bY0hdMiluYyhbY0hdMyktYzRbY0hdW2NIXWMoQyg9TylbTkgyXSlbY0hdYzRbQ0gzXQ==

> <s_epik_cmdline>
J2VwaWtfcHl0aG9uJywgJy1waHQnLCAnMC4wJywgJy1waCcsICc3LjQnLCAnLXRuJywgJzgnLCAnLW1hJywgJzUwMCcsICctaW1hZScsICc8aW5maWxlLm1hZT4nLCAnLW9tYWUnLCAnPG91dGZpbGUubWFlPic=

> <r_lp_tautomer_probability>
1

> <r_epik_Ionization_Penalty>
0.0009

> <r_epik_Ionization_Penalty_Charging>
0.0009

> <r_epik_Ionization_Penalty_Neutral>
0

> <r_epik_State_Penalty>
-0

> <r_epik_Charging_Adjusted_Penalty>
0.000851558

> <i_epik_Tot_Q>
0

> <i_epik_Tot_abs_Q>
0

> <s_lp_Force_Field>
S-OPLS

> <r_lp_Energy>
43.2355

> <b_lp_Chiralities_Consistent>
1

> <s_lp_Variant>
lig_CHEMBL3265015-1

> <s_i_glide_gridfile>
glide-grid_4PV0-SYK

> <i_i_glide_lignum>
22

> <i_i_glide_rotatable_bonds>
6

> <r_i_docking_score>
-7.91528

> <r_i_glide_ligand_efficiency>
-0.263843

> <r_i_glide_ligand_efficiency_sa>
-0.81982

> <r_i_glide_ligand_efficiency_ln>
-1.79844

> <r_i_glide_gscore>
-7.91528

> <r_i_glide_lipo>
-2.78567

> <r_i_glide_hbond>
-0.410526

> <r_i_glide_metal>
-0

> <r_i_glide_rewards>
-2.24347

> <r_i_glide_evdw>
-44.7091

> <r_i_glide_ecoul>
-6.42622

> <r_i_glide_erotb>
0.723773

> <r_i_glide_esite>
0

> <r_i_glide_emodel>
-73.8584

> <r_i_glide_energy>
-51.1353

> <r_i_glide_einternal>
0.535544

> <i_i_glide_confnum>
3

> <i_i_glide_posenum>
2

> <r_i_glide_eff_state_penalty>
-0

> <r_i_glide_rmsd>
0.0828649

> <s_glide_core_constrain_type>
snapped_core_restrain
$$$$