lig_5e
                    3D
 Schrodinger Suite 2021-1.
 37 39  0  0  1  0            999 V2000
  -39.9728   -9.3436    5.3290 H   0  0  0  0  0  0
  -39.7585   -9.4650    6.2444 O   0  0  0  0  0  0
  -38.8124  -10.5060    6.3667 C   0  0  0  0  0  0
  -38.7614  -10.9070    7.8277 C   0  0  0  0  0  0
  -39.2577  -12.1452    8.2788 C   0  0  0  0  0  0
  -39.6695  -12.8729    7.5988 H   0  0  0  0  0  0
  -39.2561  -12.4460    9.6462 C   0  0  0  0  0  0
  -39.6554  -13.3994    9.9623 H   0  0  0  0  0  0
  -38.7589  -11.5084   10.5779 C   0  0  0  0  0  0
  -38.8106  -11.8058   12.0268 C   0  0  0  0  0  0
  -39.4993  -12.8295   12.4339 N   0  0  0  0  0  0
  -39.5532  -13.1323   13.7911 C   0  0  0  0  0  0
  -40.3587  -14.2106   14.2007 C   0  0  0  0  0  0
  -40.9040  -14.7943   13.4733 H   0  0  0  0  0  0
  -40.4765  -14.4990   15.5652 C   0  0  0  0  0  0
  -41.1303  -15.2960   15.8974 H   0  0  0  0  0  0
  -39.7808  -13.7108   16.4780 C   0  0  0  0  0  0
  -40.1586  -14.0557   17.9705 Cl  0  0  0  0  0  0
  -38.9472  -12.6500   16.1122 C   0  0  0  0  0  0
  -38.4516  -12.0514   16.8614 H   0  0  0  0  0  0
  -38.8465  -12.3589   14.7446 C   0  0  0  0  0  0
  -38.0275  -11.2150   14.2550 C   0  0  0  0  0  0
  -37.3425  -10.5258   15.0093 O   0  0  0  0  0  0
  -38.1006  -11.0059   12.9349 N   0  0  0  0  0  0
  -37.5253  -10.2591   12.5674 H   0  0  0  0  0  0
  -38.2389  -10.2775   10.1294 C   0  0  0  0  0  0
  -37.8515   -9.5373   10.8141 H   0  0  0  0  0  0
  -38.2521   -9.9793    8.7621 C   0  0  0  0  0  0
  -37.8906   -9.0144    8.4393 H   0  0  0  0  0  0
  -39.2823  -11.6089    5.4060 C   0  0  0  0  0  0
  -38.5903  -12.4549    5.4288 H   0  0  0  0  0  0
  -39.3142  -11.2528    4.3755 H   0  0  0  0  0  0
  -40.2850  -11.9592    5.6487 H   0  0  0  0  0  0
  -37.4110  -10.0602    5.9147 C   0  0  0  0  0  0
  -36.6653  -10.8154    6.1682 H   0  0  0  0  0  0
  -37.3572   -9.9340    4.8345 H   0  0  0  0  0  0
  -37.1029   -9.1192    6.3682 H   0  0  0  0  0  0
  1  2  1  0  0  0
  2  3  1  0  0  0
  3  4  1  0  0  0
  3 30  1  0  0  0
  3 34  1  0  0  0
  4 28  1  0  0  0
  4  5  2  0  0  0
  5  6  1  0  0  0
  5  7  1  0  0  0
  7  8  1  0  0  0
  7  9  2  0  0  0
  9 10  1  0  0  0
  9 26  1  0  0  0
 10 24  1  0  0  0
 10 11  2  0  0  0
 11 12  1  0  0  0
 12 21  2  0  0  0
 12 13  1  0  0  0
 13 14  1  0  0  0
 13 15  2  0  0  0
 15 16  1  0  0  0
 15 17  1  0  0  0
 17 18  1  0  0  0
 17 19  2  0  0  0
 19 20  1  0  0  0
 19 21  1  0  0  0
 21 22  1  0  0  0
 22 23  2  0  0  0
 22 24  1  0  0  0
 24 25  1  0  0  0
 26 27  1  0  0  0
 26 28  2  0  0  0
 28 29  1  0  0  0
 30 31  1  0  0  0
 30 32  1  0  0  0
 30 33  1  0  0  0
 34 35  1  0  0  0
 34 36  1  0  0  0
 34 37  1  0  0  0
M  END
> <s_m_source_file>
ligprep_tnks2.smi

> <i_m_source_file_index>
9

> <i_lp_mmshare_version>
53161

> <i_f3d_flags>
0

> <s_epik_input>
W09IXUMoW0NIM10pKFtDSDNdKWMxW2NIXVtjSF1jKFtjSF1bY0hdMSktYyhuMilbbkhdYyg9TyljKGMyMylbY0hdYyhDbClbY0hdW2NIXTM=

> <s_epik_cmdline>
J2VwaWtfcHl0aG9uJywgJy1waHQnLCAnMC4wJywgJy1waCcsICc3LjQnLCAnLXRuJywgJzgnLCAnLW1hJywgJzUwMCcsICctaW1hZScsICc8aW5maWxlLm1hZT4nLCAnLW9tYWUnLCAnPG91dGZpbGUubWFlPic=

> <r_lp_tautomer_probability>
1

> <r_epik_Ionization_Penalty>
0.0374

> <r_epik_Ionization_Penalty_Charging>
0.0374

> <r_epik_Ionization_Penalty_Neutral>
0

> <r_epik_State_Penalty>
-0

> <r_epik_Charging_Adjusted_Penalty>
0.037359

> <i_epik_Tot_Q>
0

> <i_epik_Tot_abs_Q>
0

> <s_lp_Force_Field>
S-OPLS

> <r_lp_Energy>
18.2963

> <b_lp_Chiralities_Consistent>
1

> <s_lp_Variant>
lig_5e-1

> <s_i_glide_gridfile>
glide-grid_4UI5-TNKS2

> <i_i_glide_lignum>
9

> <i_i_glide_rotatable_bonds>
3

> <r_i_docking_score>
-11.4488

> <r_i_glide_ligand_efficiency>
-0.520398

> <r_i_glide_ligand_efficiency_sa>
-1.45818

> <r_i_glide_ligand_efficiency_ln>
-2.7985

> <r_i_glide_gscore>
-11.4488

> <r_i_glide_lipo>
-4.54589

> <r_i_glide_hbond>
-1.19519

> <r_i_glide_metal>
-0

> <r_i_glide_rewards>
-3.1113

> <r_i_glide_evdw>
-28.8144

> <r_i_glide_ecoul>
-10.3317

> <r_i_glide_erotb>
0.394089

> <r_i_glide_esite>
0

> <r_i_glide_emodel>
-102.779

> <r_i_glide_energy>
-39.1461

> <r_i_glide_einternal>
2.72969

> <i_i_glide_confnum>
12

> <i_i_glide_posenum>
1

> <r_i_glide_eff_state_penalty>
-0

> <r_i_glide_rmsd>
0.0904998

> <s_glide_core_constrain_type>
snapped_core_restrain
$$$$