lig_CHEMBL1077227
                    3D
 Schrodinger Suite 2021-1.
 57 60  0  0  1  0            999 V2000
   34.2362    7.7480   15.1992 H   0  0  0  0  0  0
   33.1643    7.7695   15.3484 C   0  0  0  0  0  0
   32.4373    7.0786   16.2841 C   0  0  0  0  0  0
   32.8594    6.4040   17.0135 H   0  0  0  0  0  0
   31.0379    7.3363   16.1936 C   0  0  0  0  0  0
   30.3325    6.8675   16.8615 H   0  0  0  0  0  0
   30.7223    8.2363   15.2073 C   0  0  0  0  0  0
   29.3695    8.7455   14.8443 C   0  0  2  0  0  0
   28.6435    8.3014   15.5201 H   0  0  0  0  0  0
   29.0461    8.2606   13.4992 N   0  0  0  0  0  0
   29.2144    7.2866   13.3077 H   0  0  0  0  0  0
   28.0316    8.8962   12.7779 C   0  0  0  0  0  0
   27.6649    8.3563   11.5213 C   0  0  0  0  0  0
   28.1374    7.4656   11.1460 H   0  0  0  0  0  0
   26.6945    8.9940   10.7390 C   0  0  0  0  0  0
   26.4812    8.5639    9.7774 H   0  0  0  0  0  0
   26.0479   10.1752   11.1846 C   0  0  0  0  0  0
   25.0423   10.8968   10.2780 C   0  0  0  0  0  0
   25.8036   11.7013    9.2404 C   0  0  0  0  0  0
   25.1672   12.2359    8.5345 H   0  0  0  0  0  0
   26.4447   10.9939    8.7206 H   0  0  0  0  0  0
   26.4356   12.4400    9.7163 H   0  0  0  0  0  0
   24.1323   11.8581   11.0346 C   0  0  0  0  0  0
   24.7562   12.5859   11.5189 H   0  0  0  0  0  0
   23.5631   11.3889   11.8282 H   0  0  0  0  0  0
   23.4346   12.3715   10.3657 H   0  0  0  0  0  0
   24.1441    9.8652    9.6055 C   0  0  0  0  0  0
   23.2734   10.2573    9.1186 H   0  0  0  0  0  0
   23.6954    9.3702   10.4398 H   0  0  0  0  0  0
   24.6232    9.1507    8.9354 H   0  0  0  0  0  0
   26.4129   10.6928   12.4556 C   0  0  0  0  0  0
   25.9864   11.6037   12.8481 H   0  0  0  0  0  0
   27.3983   10.0683   13.2297 C   0  0  0  0  0  0
   27.8220   10.7356   14.5386 C   0  0  1  0  0  0
   27.8497   11.8084   14.3488 H   0  0  0  0  0  0
   26.8847   10.4859   15.5925 O   0  0  0  0  0  0
   27.1588   11.1712   16.8057 C   0  0  1  0  0  0
   27.2273   12.2245   16.5639 H   0  0  0  0  0  0
   25.9576   11.0121   17.7678 C   0  0  0  0  0  0
   25.6582   11.9945   18.1342 H   0  0  0  0  0  0
   25.1172   10.6590   17.1818 H   0  0  0  0  0  0
   26.2129   10.1304   18.9528 N   0  3  0  0  0  0
   26.8341    9.3974   18.6356 H   0  0  0  0  0  0
   25.0097    9.4298   19.4085 C   0  0  0  0  0  0
   25.2435    8.6798   20.1640 H   0  0  0  0  0  0
   24.5182    8.9109   18.5881 H   0  0  0  0  0  0
   24.2896   10.1159   19.8438 H   0  0  0  0  0  0
   28.5202   10.6959   17.3363 C   0  0  0  0  0  0
   28.7765   11.2293   18.2513 H   0  0  0  0  0  0
   28.4873    9.6429   17.5818 H   0  0  0  0  0  0
   29.6313   10.8958   16.3016 C   0  0  0  0  0  0
   29.8032   11.9679   16.1785 H   0  0  0  0  0  0
   30.5694   10.4808   16.6763 H   0  0  0  0  0  0
   29.2384   10.2844   14.9415 C   0  0  1  0  0  0
   29.9352   10.6918   14.2133 H   0  0  0  0  0  0
   32.1449    8.7417   14.3221 S   0  0  0  0  0  0
   26.6502   10.5308   19.9206 H   0  0  0  0  0  0
  1  2  1  0  0  0
  2 56  1  0  0  0
  2  3  2  0  0  0
  3  4  1  0  0  0
  3  5  1  0  0  0
  5  6  1  0  0  0
  5  7  2  0  0  0
  7  8  1  0  0  0
  7 56  1  0  0  0
  8 54  1  0  0  0
  8  9  1  0  0  0
  8 10  1  0  0  0
 10 11  1  0  0  0
 10 12  1  0  0  0
 12 33  1  0  0  0
 12 13  2  0  0  0
 13 14  1  0  0  0
 13 15  1  0  0  0
 15 16  1  0  0  0
 15 17  2  0  0  0
 17 18  1  0  0  0
 17 31  1  0  0  0
 18 19  1  0  0  0
 18 23  1  0  0  0
 18 27  1  0  0  0
 19 20  1  0  0  0
 19 21  1  0  0  0
 19 22  1  0  0  0
 23 24  1  0  0  0
 23 25  1  0  0  0
 23 26  1  0  0  0
 27 28  1  0  0  0
 27 29  1  0  0  0
 27 30  1  0  0  0
 31 32  1  0  0  0
 31 33  2  0  0  0
 33 34  1  0  0  0
 34 54  1  0  0  0
 34 35  1  0  0  0
 34 36  1  0  0  0
 36 37  1  0  0  0
 37 38  1  0  0  0
 37 39  1  0  0  0
 37 48  1  0  0  0
 39 40  1  0  0  0
 39 41  1  0  0  0
 39 42  1  0  0  0
 42 43  1  0  0  0
 42 44  1  0  0  0
 42 57  1  0  0  0
 44 45  1  0  0  0
 44 46  1  0  0  0
 44 47  1  0  0  0
 48 49  1  0  0  0
 48 50  1  0  0  0
 48 51  1  0  0  0
 51 52  1  0  0  0
 51 53  1  0  0  0
 51 54  1  0  0  0
 54 55  1  0  0  0
M  CHG  1  42   1
M  END
> <s_m_source_file>
ligprep_eg5.smi

> <i_m_source_file_index>
2

> <i_lp_mmshare_version>
53161

> <i_f3d_flags>
0

> <s_epik_input>
W0NIM11bTkhdW0NIMl1bQ0BIXShPMSlbQ0gyXVtDSDJdW0NAQEhdKFtDQEBIXShbTkhdMiljM1tjSF1bY0hdW2NIXXMzKVtDQEhdMWMoYzI0KVtjSF1jKFtjSF1bY0hdNClDKFtDSDNdKShbQ0gzXSlbQ0gzXQ==

> <s_epik_cmdline>
J2VwaWtfcHl0aG9uJywgJy1waHQnLCAnMC4wJywgJy1waCcsICc3LjQnLCAnLXRuJywgJzgnLCAnLW1hJywgJzUwMCcsICctaW1hZScsICc8aW5maWxlLm1hZT4nLCAnLW9tYWUnLCAnPG91dGZpbGUubWFlPic=

> <r_lp_tautomer_probability>
1

> <r_epik_Ionization_Penalty>
0.0026

> <r_epik_Ionization_Penalty_Charging>
0.0023

> <r_epik_Ionization_Penalty_Neutral>
0.0002

> <r_epik_State_Penalty>
-0

> <r_epik_Charging_Adjusted_Penalty>
0.00234437

> <i_epik_Tot_Q>
1

> <i_epik_Tot_abs_Q>
1

> <s_lp_Force_Field>
S-OPLS

> <r_lp_Energy>
35.8987

> <b_lp_Chiralities_Consistent>
1

> <s_lp_Variant>
lig_CHEMBL1077227-1

> <s_i_glide_gridfile>
glide-grid_3L9H-EG5

> <i_i_glide_lignum>
2

> <i_i_glide_rotatable_bonds>
4

> <r_i_docking_score>
-8.03517

> <r_i_glide_ligand_efficiency>
-0.309045

> <r_i_glide_ligand_efficiency_sa>
-0.915544

> <r_i_glide_ligand_efficiency_ln>
-1.88703

> <r_i_glide_gscore>
-8.03517

> <r_i_glide_lipo>
-4.9817

> <r_i_glide_hbond>
-0.148566

> <r_i_glide_metal>
-0

> <r_i_glide_rewards>
-1.05382

> <r_i_glide_evdw>
-39.315

> <r_i_glide_ecoul>
-2.96435

> <r_i_glide_erotb>
0.559319

> <r_i_glide_esite>
0

> <r_i_glide_emodel>
-51.0107

> <r_i_glide_energy>
-42.2794

> <r_i_glide_einternal>
0.667636

> <i_i_glide_confnum>
37

> <i_i_glide_posenum>
10

> <r_i_glide_eff_state_penalty>
-0

> <r_i_glide_rmsd>
0.107838

> <s_glide_core_constrain_type>
snapped_core_restrain
$$$$