lig_CHEMBL1089056
                    3D
 Schrodinger Suite 2021-1.
 51 54  0  0  1  0            999 V2000
   34.3159    7.0435   16.2420 H   0  0  0  0  0  0
   33.3292    7.3685   15.9597 C   0  0  0  0  0  0
   33.1553    8.2104   14.8443 C   0  0  0  0  0  0
   34.0129    8.5335   14.2721 H   0  0  0  0  0  0
   31.8731    8.6365   14.4799 C   0  0  0  0  0  0
   31.7527    9.2852   13.6211 H   0  0  0  0  0  0
   30.7484    8.2371   15.2213 C   0  0  0  0  0  0
   29.3676    8.7245   14.8330 C   0  0  2  0  0  0
   28.6436    8.2743   15.5131 H   0  0  0  0  0  0
   29.0452    8.2452   13.4957 N   0  0  0  0  0  0
   29.1705    7.2526   13.3433 H   0  0  0  0  0  0
   28.0436    8.8951   12.7618 C   0  0  0  0  0  0
   27.6613    8.3538   11.5185 C   0  0  0  0  0  0
   28.1183    7.4464   11.1569 H   0  0  0  0  0  0
   26.6971    9.0027   10.7266 C   0  0  0  0  0  0
   26.4491    8.5700    9.7696 H   0  0  0  0  0  0
   26.0787   10.1939   11.1749 C   0  0  0  0  0  0
   25.0594   10.9282   10.2913 C   0  0  0  0  0  0
   25.8144   11.7766    9.2676 C   0  0  0  0  0  0
   25.1723   12.2822    8.5574 H   0  0  0  0  0  0
   26.5145   11.1609    8.7188 H   0  0  0  0  0  0
   26.3671   12.5623    9.7652 H   0  0  0  0  0  0
   24.1645   11.8666   11.0991 C   0  0  0  0  0  0
   24.7868   12.6391   11.5187 H   0  0  0  0  0  0
   23.6783   11.3698   11.9264 H   0  0  0  0  0  0
   23.4009   12.3490   10.4872 H   0  0  0  0  0  0
   24.1304    9.9361    9.5963 C   0  0  0  0  0  0
   23.2918   10.4227    9.1214 H   0  0  0  0  0  0
   23.6777    9.3746   10.3839 H   0  0  0  0  0  0
   24.6120    9.2665    8.8862 H   0  0  0  0  0  0
   26.4576   10.7112   12.4307 C   0  0  0  0  0  0
   26.0286   11.6167   12.8211 H   0  0  0  0  0  0
   27.4417   10.0890   13.2126 C   0  0  0  0  0  0
   27.8641   10.7496   14.5081 C   0  0  1  0  0  0
   27.9022   11.8236   14.3325 H   0  0  0  0  0  0
   26.8992   10.5014   15.5259 O   0  0  0  0  0  0
   27.1609   11.1895   16.7452 C   0  0  0  0  0  0
   27.1826   12.2677   16.5802 H   0  0  0  0  0  0
   26.3508   10.9860   17.4424 H   0  0  0  0  0  0
   28.4893   10.6883   17.3230 C   0  0  0  0  0  0
   28.7148   11.2085   18.2545 H   0  0  0  0  0  0
   28.3948    9.6268   17.5699 H   0  0  0  0  0  0
   29.6267   10.8706   16.3198 C   0  0  0  0  0  0
   29.8203   11.9357   16.2072 H   0  0  0  0  0  0
   30.5425   10.4372   16.7232 H   0  0  0  0  0  0
   29.2645   10.2733   14.9394 C   0  0  1  0  0  0
   29.9757   10.6864   14.2278 H   0  0  0  0  0  0
   30.9134    7.3634   16.3179 C   0  0  0  0  0  0
   30.0580    7.0263   16.8815 H   0  0  0  0  0  0
   32.2027    6.9338   16.6814 C   0  0  0  0  0  0
   32.3295    6.2677   17.5252 H   0  0  0  0  0  0
  1  2  1  0  0  0
  2 50  1  0  0  0
  2  3  2  0  0  0
  3  4  1  0  0  0
  3  5  1  0  0  0
  5  6  1  0  0  0
  5  7  2  0  0  0
  7  8  1  0  0  0
  7 48  1  0  0  0
  8 46  1  0  0  0
  8  9  1  0  0  0
  8 10  1  0  0  0
 10 11  1  0  0  0
 10 12  1  0  0  0
 12 33  1  0  0  0
 12 13  2  0  0  0
 13 14  1  0  0  0
 13 15  1  0  0  0
 15 16  1  0  0  0
 15 17  2  0  0  0
 17 18  1  0  0  0
 17 31  1  0  0  0
 18 19  1  0  0  0
 18 23  1  0  0  0
 18 27  1  0  0  0
 19 20  1  0  0  0
 19 21  1  0  0  0
 19 22  1  0  0  0
 23 24  1  0  0  0
 23 25  1  0  0  0
 23 26  1  0  0  0
 27 28  1  0  0  0
 27 29  1  0  0  0
 27 30  1  0  0  0
 31 32  1  0  0  0
 31 33  2  0  0  0
 33 34  1  0  0  0
 34 46  1  0  0  0
 34 35  1  0  0  0
 34 36  1  0  0  0
 36 37  1  0  0  0
 37 38  1  0  0  0
 37 39  1  0  0  0
 37 40  1  0  0  0
 40 41  1  0  0  0
 40 42  1  0  0  0
 40 43  1  0  0  0
 43 44  1  0  0  0
 43 45  1  0  0  0
 43 46  1  0  0  0
 46 47  1  0  0  0
 48 49  1  0  0  0
 48 50  2  0  0  0
 50 51  1  0  0  0
M  END
> <s_m_source_file>
ligprep_eg5.smi

> <i_m_source_file_index>
23

> <i_lp_mmshare_version>
53161

> <i_f3d_flags>
0

> <s_epik_input>
W2NIXTFbY0hdW2NIXVtjSF1bY0hdYzFbQ0BIXShbTkhdMilbQ0BIXShbQ0gyXVtDSDJdW0NIMl1PMylbQ0BIXTNjKGMyNClbY0hdYyhbY0hdW2NIXTQpQyhbQ0gzXSkoW0NIM10pW0NIM10=

> <s_epik_cmdline>
J2VwaWtfcHl0aG9uJywgJy1waHQnLCAnMC4wJywgJy1waCcsICc3LjQnLCAnLXRuJywgJzgnLCAnLW1hJywgJzUwMCcsICctaW1hZScsICc8aW5maWxlLm1hZT4nLCAnLW9tYWUnLCAnPG91dGZpbGUubWFlPic=

> <r_lp_tautomer_probability>
1

> <r_epik_Ionization_Penalty>
0.0005

> <r_epik_Ionization_Penalty_Charging>
0

> <r_epik_Ionization_Penalty_Neutral>
0.0005

> <r_epik_State_Penalty>
-0

> <r_epik_Charging_Adjusted_Penalty>
0

> <i_epik_Tot_Q>
0

> <i_epik_Tot_abs_Q>
0

> <s_lp_Force_Field>
S-OPLS

> <r_lp_Energy>
36.7883

> <b_lp_Chiralities_Consistent>
1

> <s_lp_Variant>
lig_CHEMBL1089056-1

> <s_i_glide_gridfile>
glide-grid_3L9H-EG5

> <i_i_glide_lignum>
24

> <i_i_glide_rotatable_bonds>
2

> <r_i_docking_score>
-8.62778

> <r_i_glide_ligand_efficiency>
-0.359491

> <r_i_glide_ligand_efficiency_sa>
-1.03695

> <r_i_glide_ligand_efficiency_ln>
-2.06502

> <r_i_glide_gscore>
-8.62778

> <r_i_glide_lipo>
-5.3292

> <r_i_glide_hbond>
-0.193421

> <r_i_glide_metal>
-0

> <r_i_glide_rewards>
-1.42124

> <r_i_glide_evdw>
-37.0338

> <r_i_glide_ecoul>
-1.29269

> <r_i_glide_erotb>
0.361678

> <r_i_glide_esite>
0

> <r_i_glide_emodel>
-47.5437

> <r_i_glide_energy>
-38.3265

> <r_i_glide_einternal>
0.650154

> <i_i_glide_confnum>
12

> <i_i_glide_posenum>
2

> <r_i_glide_eff_state_penalty>
-0

> <r_i_glide_rmsd>
0.100526

> <s_glide_core_constrain_type>
snapped_core_restrain
$$$$