lig_3a
                    3D
 Schrodinger Suite 2021-1.
 55 57  0  0  1  0            999 V2000
   11.1765  -13.1661   21.8521 C   0  0  0  0  0  0
   11.8636  -11.8943   22.1057 C   0  0  0  0  0  0
   11.4429  -10.9381   23.0523 C   0  0  0  0  0  0
   12.1275   -9.7103   23.1327 C   0  0  0  0  0  0
   13.1928   -9.4370   22.2511 C   0  0  0  0  0  0
   13.5908  -10.4092   21.3082 C   0  0  0  0  0  0
   12.9387  -11.6551   21.2749 C   0  0  0  0  0  0
   14.6540  -10.0990   20.2702 C   0  0  0  0  0  0
   16.0016  -10.5040   20.6518 N   0  0  0  0  0  0
   16.5833  -11.6854   20.4136 C   0  0  0  0  0  0
   16.0417  -12.5971   19.7797 O   0  0  0  0  0  0
   18.0009  -11.8765   21.0031 C   0  0  2  0  0  0
   19.0563  -11.7582   19.8917 C   0  0  0  0  0  0
   20.1168  -12.7935   20.2227 C   0  0  0  0  0  0
   19.4131  -13.8418   21.0789 C   0  0  0  0  0  0
   18.2067  -13.2060   21.6117 N   0  0  0  0  0  0
   17.4048  -13.7288   22.5715 C   0  0  0  0  0  0
   16.4644  -13.1005   23.0518 O   0  0  0  0  0  0
   17.6358  -15.1546   23.1036 C   0  0  1  0  0  0
   18.1865  -15.1696   24.5503 C   0  0  0  0  0  0
   19.5546  -14.5344   24.7433 C   0  0  0  0  0  0
   19.6773  -13.3099   25.4305 C   0  0  0  0  0  0
   20.9379  -12.6961   25.5738 C   0  0  0  0  0  0
   22.0859  -13.3194   25.0519 C   0  0  0  0  0  0
   21.9753  -14.5580   24.3918 C   0  0  0  0  0  0
   20.7113  -15.1698   24.2444 C   0  0  0  0  0  0
   16.3440  -15.8607   23.0519 N   0  3  0  0  0  0
   18.1925  -11.1284   21.7748 H   0  0  0  0  0  0
   18.3135  -15.7111   22.4561 H   0  0  0  0  0  0
   16.0269  -15.8793   22.0871 H   0  0  0  0  0  0
   16.4351  -16.8040   23.3983 H   0  0  0  0  0  0
   11.8376  -13.9505   22.2588 H   0  0  0  0  0  0
   10.2161  -13.0094   22.3429 H   0  0  0  0  0  0
   11.0442  -13.3376   20.7832 H   0  0  0  0  0  0
   10.5987  -11.1321   23.7035 H   0  0  0  0  0  0
   11.8168   -8.9668   23.8589 H   0  0  0  0  0  0
   13.6953   -8.4792   22.2946 H   0  0  0  0  0  0
   13.2350  -12.3935   20.5481 H   0  0  0  0  0  0
   14.6604   -9.0177   20.1236 H   0  0  0  0  0  0
   14.3749  -10.5533   19.3194 H   0  0  0  0  0  0
   16.5373   -9.8237   21.1816 H   0  0  0  0  0  0
   19.4809  -10.7522   19.8538 H   0  0  0  0  0  0
   18.6354  -11.9757   18.9083 H   0  0  0  0  0  0
   20.8987  -12.3214   20.8148 H   0  0  0  0  0  0
   20.5914  -13.2162   19.3365 H   0  0  0  0  0  0
   20.0837  -14.2050   21.8579 H   0  0  0  0  0  0
   19.1243  -14.6908   20.4589 H   0  0  0  0  0  0
   18.2587  -16.2000   24.8997 H   0  0  0  0  0  0
   17.4784  -14.6847   25.2253 H   0  0  0  0  0  0
   18.8048  -12.8256   25.8473 H   0  0  0  0  0  0
   21.0196  -11.7563   26.0968 H   0  0  0  0  0  0
   23.0547  -12.8566   25.1665 H   0  0  0  0  0  0
   22.8601  -15.0398   24.0023 H   0  0  0  0  0  0
   20.6370  -16.1208   23.7347 H   0  0  0  0  0  0
   15.6587  -15.3374   23.5898 H   0  0  0  0  0  0
  1  2  1  0  0  0
  1 32  1  0  0  0
  1 33  1  0  0  0
  1 34  1  0  0  0
  2  7  1  0  0  0
  2  3  2  0  0  0
  3  4  1  0  0  0
  3 35  1  0  0  0
  4  5  2  0  0  0
  4 36  1  0  0  0
  5  6  1  0  0  0
  5 37  1  0  0  0
  6  7  2  0  0  0
  6  8  1  0  0  0
  7 38  1  0  0  0
  8  9  1  0  0  0
  8 39  1  0  0  0
  8 40  1  0  0  0
  9 10  1  0  0  0
  9 41  1  0  0  0
 10 11  2  0  0  0
 10 12  1  0  0  0
 12 28  1  0  0  0
 12 16  1  0  0  0
 12 13  1  0  0  0
 13 14  1  0  0  0
 13 42  1  0  0  0
 13 43  1  0  0  0
 14 15  1  0  0  0
 14 44  1  0  0  0
 14 45  1  0  0  0
 15 16  1  0  0  0
 15 46  1  0  0  0
 15 47  1  0  0  0
 16 17  1  0  0  0
 17 18  2  0  0  0
 17 19  1  0  0  0
 19 29  1  0  0  0
 19 20  1  0  0  0
 19 27  1  0  0  0
 20 21  1  0  0  0
 20 48  1  0  0  0
 20 49  1  0  0  0
 21 26  1  0  0  0
 21 22  2  0  0  0
 22 23  1  0  0  0
 22 50  1  0  0  0
 23 24  2  0  0  0
 23 51  1  0  0  0
 24 25  1  0  0  0
 24 52  1  0  0  0
 25 26  2  0  0  0
 25 53  1  0  0  0
 26 54  1  0  0  0
 27 30  1  0  0  0
 27 31  1  0  0  0
 27 55  1  0  0  0
M  CHG  1  27   1
M  END
> <s_m_source_file>
ligprep_thrombin.smi

> <i_m_source_file_index>
5

> <i_lp_mmshare_version>
53161

> <i_f3d_flags>
0

> <s_epik_input>
W0NIM11jMVtjSF1bY0hdW2NIXWMoW2NIXTEpW0NIMl1bTkhdQyg9TylbQ0BASF0yW0NIMl1bQ0gyXVtDSDJdTjJDKD1PKVtDQEhdKFtOSDJdKVtDSDJdYzNbY0hdW2NIXVtjSF1bY0hdW2NIXTM=

> <s_epik_cmdline>
J2VwaWtfcHl0aG9uJywgJy1waHQnLCAnMC4wJywgJy1waCcsICc3LjQnLCAnLXRuJywgJzgnLCAnLW1hJywgJzUwMCcsICctaW1hZScsICc8aW5maWxlLm1hZT4nLCAnLW9tYWUnLCAnPG91dGZpbGUubWFlPic=

> <r_epik_Ionization_Penalty>
0.3822

> <r_epik_Ionization_Penalty_Charging>
0.3822

> <r_epik_Ionization_Penalty_Neutral>
0

> <r_epik_State_Penalty>
0.3803

> <r_epik_Charging_Adjusted_Penalty>
0.762511

> <i_epik_Tot_Q>
1

> <i_epik_Tot_abs_Q>
1

> <s_lp_Force_Field>
S-OPLS

> <r_lp_Energy>
38.1278

> <b_lp_Chiralities_Consistent>
1

> <s_lp_Variant>
lig_3a-1

> <s_i_glide_gridfile>
glide-grid_2ZFF-Thrombin

> <i_i_glide_lignum>
5

> <i_i_glide_rotatable_bonds>
8

> <r_i_docking_score>
-10.4895

> <r_i_glide_ligand_efficiency>
-0.388501

> <r_i_glide_ligand_efficiency_sa>
-1.1655

> <r_i_glide_ligand_efficiency_ln>
-2.44179

> <r_i_glide_gscore>
-10.8698

> <r_i_glide_lipo>
-4.6654

> <r_i_glide_hbond>
-0.864

> <r_i_glide_metal>
-0

> <r_i_glide_rewards>
-1.64455

> <r_i_glide_evdw>
-44.7206

> <r_i_glide_ecoul>
-17.1357

> <r_i_glide_erotb>
1.14652

> <r_i_glide_esite>
-0.036009

> <r_i_glide_emodel>
-75.0269

> <r_i_glide_energy>
-61.8563

> <r_i_glide_einternal>
-1.70698e-06

> <i_i_glide_confnum>
6

> <i_i_glide_posenum>
5

> <r_i_glide_eff_state_penalty>
0.3803

> <r_i_glide_rmsd>
0.101302

> <s_glide_core_constrain_type>
snapped_core_restrain
$$$$