lig_CHEMBL1096002
                    3D
 Schrodinger Suite 2021-1.
 52 55  0  0  1  0            999 V2000
   27.7449    9.0251   22.7186 H   0  0  0  0  0  0
   27.6445    9.7475   22.1124 O   0  0  0  0  0  0
   26.9435    9.3045   20.9728 C   0  0  0  0  0  0
   27.5670    8.5774   20.4514 H   0  0  0  0  0  0
   26.0160    8.8115   21.2753 H   0  0  0  0  0  0
   26.6416   10.4939   20.0560 C   0  0  0  0  0  0
   25.9187   11.1581   20.5302 H   0  0  0  0  0  0
   27.5524   11.0755   19.9237 H   0  0  0  0  0  0
   26.1232   10.0268   18.7503 N   0  3  0  0  0  0
   26.7159    9.2977   18.3764 H   0  0  0  0  0  0
   25.9579   11.0771   17.7123 C   0  0  0  0  0  0
   25.0798   10.8324   17.1053 H   0  0  0  0  0  0
   25.7116   12.0258   18.1985 H   0  0  0  0  0  0
   27.1678   11.2530   16.7596 C   0  0  2  0  0  0
   27.2230   12.3144   16.5158 H   0  0  0  0  0  0
   26.8896   10.5581   15.5487 O   0  0  0  0  0  0
   27.8039   10.8564   14.4961 C   0  0  2  0  0  0
   27.8145   11.9369   14.3415 H   0  0  0  0  0  0
   27.3459   10.2230   13.1953 C   0  0  0  0  0  0
   26.3549   10.8507   12.4191 C   0  0  0  0  0  0
   25.9078   11.7740   12.7609 H   0  0  0  0  0  0
   25.9486   10.2873   11.1932 C   0  0  0  0  0  0
   24.6938   11.0695   10.3186 Cl  0  0  0  0  0  0
   26.5130    9.0981   10.7326 C   0  0  0  0  0  0
   26.1705    8.6514    9.8069 H   0  0  0  0  0  0
   27.4854    8.4741   11.5186 C   0  0  0  0  0  0
   27.9675    7.3015   11.1186 F   0  0  0  0  0  0
   27.9326    9.0246   12.7323 C   0  0  0  0  0  0
   28.9616    8.3766   13.4304 N   0  0  0  0  0  0
   29.1609    7.4117   13.1901 H   0  0  0  0  0  0
   29.3062    8.8293   14.7679 C   0  0  1  0  0  0
   28.5671    8.3980   15.4415 H   0  0  0  0  0  0
   30.6695    8.2923   15.1739 C   0  0  0  0  0  0
   30.8025    7.4237   16.2762 C   0  0  0  0  0  0
   29.9318    7.1150   16.8346 H   0  0  0  0  0  0
   32.0760    6.9697   16.6668 C   0  0  0  0  0  0
   32.1723    6.3040   17.5124 H   0  0  0  0  0  0
   33.2209    7.3686   15.9538 C   0  0  0  0  0  0
   34.1933    7.0044   16.2526 H   0  0  0  0  0  0
   33.0941    8.2091   14.8339 C   0  0  0  0  0  0
   33.9672    8.4900   14.2673 H   0  0  0  0  0  0
   31.8214    8.6683   14.4446 C   0  0  0  0  0  0
   31.7352    9.3126   13.5789 H   0  0  0  0  0  0
   29.2193   10.3721   14.8766 C   0  0  2  0  0  0
   29.9068   10.7820   14.1366 H   0  0  0  0  0  0
   29.6317   10.9776   16.2338 C   0  0  0  0  0  0
   30.5647   10.5536   16.5977 H   0  0  0  0  0  0
   29.8217   12.0433   16.1007 H   0  0  0  0  0  0
   28.5424   10.7975   17.2941 C   0  0  0  0  0  0
   28.8281   11.3718   18.1763 H   0  0  0  0  0  0
   28.5151    9.7481   17.5835 H   0  0  0  0  0  0
   25.2167    9.6141   18.9186 H   0  0  0  0  0  0
  1  2  1  0  0  0
  2  3  1  0  0  0
  3  4  1  0  0  0
  3  5  1  0  0  0
  3  6  1  0  0  0
  6  7  1  0  0  0
  6  8  1  0  0  0
  6  9  1  0  0  0
  9 10  1  0  0  0
  9 11  1  0  0  0
  9 52  1  0  0  0
 11 12  1  0  0  0
 11 13  1  0  0  0
 11 14  1  0  0  0
 14 49  1  0  0  0
 14 15  1  0  0  0
 14 16  1  0  0  0
 16 17  1  0  0  0
 17 44  1  0  0  0
 17 18  1  0  0  0
 17 19  1  0  0  0
 19 28  1  0  0  0
 19 20  2  0  0  0
 20 21  1  0  0  0
 20 22  1  0  0  0
 22 23  1  0  0  0
 22 24  2  0  0  0
 24 25  1  0  0  0
 24 26  1  0  0  0
 26 27  1  0  0  0
 26 28  2  0  0  0
 28 29  1  0  0  0
 29 30  1  0  0  0
 29 31  1  0  0  0
 31 32  1  0  0  0
 31 33  1  0  0  0
 31 44  1  0  0  0
 33 42  1  0  0  0
 33 34  2  0  0  0
 34 35  1  0  0  0
 34 36  1  0  0  0
 36 37  1  0  0  0
 36 38  2  0  0  0
 38 39  1  0  0  0
 38 40  1  0  0  0
 40 41  1  0  0  0
 40 42  2  0  0  0
 42 43  1  0  0  0
 44 45  1  0  0  0
 44 46  1  0  0  0
 46 47  1  0  0  0
 46 48  1  0  0  0
 46 49  1  0  0  0
 49 50  1  0  0  0
 49 51  1  0  0  0
M  CHG  1   9   1
M  END
> <s_m_source_file>
ligprep_eg5.smi

> <i_m_source_file_index>
27

> <i_lp_mmshare_version>
53161

> <i_f3d_flags>
0

> <s_epik_input>
W09IXVtDSDJdW0NIMl1bTkhdW0NIMl1bQ0BIXShPMSlbQ0gyXVtDSDJdW0NASF0yW0NAQEhdKFtOSF1jKGMzW0NAQEhdMTIpYyhGKVtjSF1jKENsKVtjSF0zKWM0W2NIXVtjSF1bY0hdW2NIXVtjSF00

> <s_epik_cmdline>
J2VwaWtfcHl0aG9uJywgJy1waHQnLCAnMC4wJywgJy1waCcsICc3LjQnLCAnLXRuJywgJzgnLCAnLW1hJywgJzUwMCcsICctaW1hZScsICc8aW5maWxlLm1hZT4nLCAnLW9tYWUnLCAnPG91dGZpbGUubWFlPic=

> <r_epik_Ionization_Penalty>
0.0354

> <r_epik_Ionization_Penalty_Charging>
0.0353

> <r_epik_Ionization_Penalty_Neutral>
0

> <r_epik_State_Penalty>
0.0295

> <r_epik_Charging_Adjusted_Penalty>
0.064809

> <i_epik_Tot_Q>
1

> <i_epik_Tot_abs_Q>
1

> <s_lp_Force_Field>
S-OPLS

> <r_lp_Energy>
44.334

> <b_lp_Chiralities_Consistent>
1

> <s_lp_Variant>
lig_CHEMBL1096002-1

> <s_i_glide_gridfile>
glide-grid_3L9H-EG5

> <i_i_glide_lignum>
28

> <i_i_glide_rotatable_bonds>
6

> <r_i_docking_score>
-7.63375

> <r_i_glide_ligand_efficiency>
-0.282732

> <r_i_glide_ligand_efficiency_sa>
-0.848195

> <r_i_glide_ligand_efficiency_ln>
-1.77701

> <r_i_glide_gscore>
-7.66325

> <r_i_glide_lipo>
-4.6953

> <r_i_glide_hbond>
-0.0326485

> <r_i_glide_metal>
-0

> <r_i_glide_rewards>
-0.954236

> <r_i_glide_evdw>
-42.7742

> <r_i_glide_ecoul>
-3.18567

> <r_i_glide_erotb>
0.635493

> <r_i_glide_esite>
0

> <r_i_glide_emodel>
-64.9422

> <r_i_glide_energy>
-45.9599

> <r_i_glide_einternal>
0.546321

> <i_i_glide_confnum>
11

> <i_i_glide_posenum>
15

> <r_i_glide_eff_state_penalty>
0.0295

> <r_i_glide_rmsd>
0.092138

> <s_glide_core_constrain_type>
snapped_core_restrain
$$$$