lig_CHEMBL3402761_1_21
                    3D
 Schrodinger Suite 2021-1.
 63 67  0  0  1  0            999 V2000
  -16.5822   25.1163  101.7591 H   0  0  0  0  0  0
  -17.0725   25.0913  100.7967 C   0  0  0  0  0  0
  -18.1395   25.8857  100.5779 C   0  0  0  0  0  0
  -18.4704   26.5152  101.3832 H   0  0  0  0  0  0
  -18.8205   25.8635   99.2845 C   0  0  0  0  0  0
  -19.9720   26.7623   98.9574 C   0  0  0  0  0  0
  -20.3675   27.7404   99.8946 C   0  0  0  0  0  0
  -19.8824   27.8455  100.8386 H   0  0  0  0  0  0
  -21.4179   28.6285   99.6239 C   0  0  0  0  0  0
  -21.7045   29.3669  100.3579 H   0  0  0  0  0  0
  -22.1031   28.5383   98.4055 C   0  0  0  0  0  0
  -22.9179   29.2199   98.2053 H   0  0  0  0  0  0
  -21.7329   27.5645   97.4574 C   0  0  0  0  0  0
  -22.4872   27.5145   96.2192 C   0  0  0  0  0  0
  -23.0986   27.4883   95.2388 N   0  0  0  0  0  0
  -20.6627   26.6732   97.7206 C   0  0  0  0  0  0
  -20.3839   25.9375   96.9807 H   0  0  0  0  0  0
  -18.3911   25.0399   98.3795 N   0  0  0  0  0  0
  -17.2898   24.2205   98.6146 N   0  0  0  0  0  0
  -16.9324   23.3360   97.5020 C   0  0  0  0  0  0
  -17.2069   23.8056   96.5563 H   0  0  0  0  0  0
  -15.8519   23.1904   97.4365 H   0  0  0  0  0  0
  -17.6352   21.9920   97.6079 C   0  0  0  0  0  0
  -16.9576   20.9276   98.2366 C   0  0  0  0  0  0
  -15.9556   21.0720   98.6142 H   0  0  0  0  0  0
  -17.5771   19.6745   98.3730 C   0  0  0  0  0  0
  -17.0512   18.8533   98.8381 H   0  0  0  0  0  0
  -18.8793   19.4966   97.8939 C   0  0  0  0  0  0
  -19.3036   18.5088   98.0037 H   0  0  0  0  0  0
  -19.5796   20.5414   97.2654 C   0  0  0  0  0  0
  -20.9141   20.1253   96.7489 C   0  0  0  0  0  0
  -21.5421   19.0414   97.2387 N   0  0  0  0  0  0
  -22.8551   18.8676   96.9532 C   0  0  0  0  0  0
  -23.3422   18.0004   97.3708 H   0  0  0  0  0  0
  -23.5717   19.8116   96.2103 C   0  0  0  0  0  0
  -24.9206   19.8027   95.9561 O   0  0  0  0  0  0
  -25.7683   19.6818   97.0897 C   0  0  0  0  0  0
  -26.7881   19.5376   96.7342 H   0  0  0  0  0  0
  -25.5256   18.7719   97.6375 H   0  0  0  0  0  0
  -25.6997   20.9061   98.0388 C   0  0  0  0  0  0
  -26.3161   20.6860   98.9044 H   0  0  0  0  0  0
  -24.6898   21.0023   98.4385 H   0  0  0  0  0  0
  -26.1476   22.2115   97.5546 N   0  0  0  0  0  0
  -25.2545   22.8708   96.6159 C   0  0  0  0  0  0
  -24.2377   22.8805   97.0108 H   0  0  0  0  0  0
  -25.2340   22.3248   95.6723 H   0  0  0  0  0  0
  -25.7127   24.3154   96.3543 C   0  0  0  0  0  0
  -25.0561   24.8010   95.6358 H   0  0  0  0  0  0
  -25.6621   24.9048   97.2711 H   0  0  0  0  0  0
  -27.0526   24.3049   95.8618 O   0  0  0  0  0  0
  -27.9690   23.6831   96.7620 C   0  0  0  0  0  0
  -28.9643   23.6798   96.3166 H   0  0  0  0  0  0
  -28.0324   24.2683   97.6808 H   0  0  0  0  0  0
  -27.5208   22.2418   97.0690 C   0  0  0  0  0  0
  -27.6064   21.6399   96.1635 H   0  0  0  0  0  0
  -28.1899   21.7997   97.8089 H   0  0  0  0  0  0
  -22.7682   20.7881   95.6387 C   0  0  0  0  0  0
  -23.1862   21.5201   94.9752 H   0  0  0  0  0  0
  -21.4397   20.8739   95.8183 N   0  0  0  0  0  0
  -18.9536   21.8029   97.1158 C   0  0  0  0  0  0
  -19.4771   22.6124   96.6288 H   0  0  0  0  0  0
  -16.5632   24.1961   99.7699 C   0  0  0  0  0  0
  -15.5712   23.4839   99.9335 O   0  0  0  0  0  0
  1  2  1  0  0  0
  2 62  1  0  0  0
  2  3  2  0  0  0
  3  4  1  0  0  0
  3  5  1  0  0  0
  5  6  1  0  0  0
  5 18  2  0  0  0
  6 16  1  0  0  0
  6  7  2  0  0  0
  7  8  1  0  0  0
  7  9  1  0  0  0
  9 10  1  0  0  0
  9 11  2  0  0  0
 11 12  1  0  0  0
 11 13  1  0  0  0
 13 14  1  0  0  0
 13 16  2  0  0  0
 14 15  3  0  0  0
 16 17  1  0  0  0
 18 19  1  0  0  0
 19 20  1  0  0  0
 19 62  1  0  0  0
 20 21  1  0  0  0
 20 22  1  0  0  0
 20 23  1  0  0  0
 23 60  1  0  0  0
 23 24  2  0  0  0
 24 25  1  0  0  0
 24 26  1  0  0  0
 26 27  1  0  0  0
 26 28  2  0  0  0
 28 29  1  0  0  0
 28 30  1  0  0  0
 30 31  1  0  0  0
 30 60  2  0  0  0
 31 59  1  0  0  0
 31 32  2  0  0  0
 32 33  1  0  0  0
 33 34  1  0  0  0
 33 35  2  0  0  0
 35 36  1  0  0  0
 35 57  1  0  0  0
 36 37  1  0  0  0
 37 38  1  0  0  0
 37 39  1  0  0  0
 37 40  1  0  0  0
 40 41  1  0  0  0
 40 42  1  0  0  0
 40 43  1  0  0  0
 43 54  1  0  0  0
 43 44  1  0  0  0
 44 45  1  0  0  0
 44 46  1  0  0  0
 44 47  1  0  0  0
 47 48  1  0  0  0
 47 49  1  0  0  0
 47 50  1  0  0  0
 50 51  1  0  0  0
 51 52  1  0  0  0
 51 53  1  0  0  0
 51 54  1  0  0  0
 54 55  1  0  0  0
 54 56  1  0  0  0
 57 58  1  0  0  0
 57 59  2  0  0  0
 60 61  1  0  0  0
 62 63  2  0  0  0
M  END
> <s_m_source_file>
ligprep_cmet.smi

> <i_m_source_file_index>
12

> <i_lp_mmshare_version>
53161

> <i_f3d_flags>
0

> <s_epik_input>
TiNDYyhbY0hdMSlbY0hdW2NIXVtjSF1jMS1jMltjSF1bY0hdYyg9TyluKG4yKVtDSDJdYzNbY0hdW2NIXVtjSF1jKFtjSF0zKS1jNG5bY0hdYyhbY0hdbjQpT1tDSDJdW0NIMl1ONVtDSDJdW0NIMl1PW0NIMl1bQ0gyXTU=

> <s_epik_cmdline>
J2VwaWtfcHl0aG9uJywgJy1waHQnLCAnMC4wJywgJy1waCcsICc3LjQnLCAnLXRuJywgJzgnLCAnLW1hJywgJzUwMCcsICctaW1hZScsICc8aW5maWxlLm1hZT4nLCAnLW9tYWUnLCAnPG91dGZpbGUubWFlPic=

> <r_lp_tautomer_probability>
1

> <r_epik_Ionization_Penalty>
0.0176

> <r_epik_Ionization_Penalty_Charging>
0

> <r_epik_Ionization_Penalty_Neutral>
0.0176

> <r_epik_State_Penalty>
-0

> <r_epik_Charging_Adjusted_Penalty>
1.83676e-08

> <i_epik_Tot_Q>
0

> <i_epik_Tot_abs_Q>
0

> <s_lp_Force_Field>
S-OPLS

> <r_lp_Energy>
78.4427

> <b_lp_Chiralities_Consistent>
1

> <s_lp_Variant>
lig_CHEMBL3402761_1_21-1

> <s_i_glide_gridfile>
glide-grid_4R1Y_cMET

> <i_i_glide_lignum>
12

> <i_i_glide_rotatable_bonds>
8

> <r_i_docking_score>
-8.53358

> <r_i_glide_ligand_efficiency>
-0.230637

> <r_i_glide_ligand_efficiency_sa>
-0.768535

> <r_i_glide_ligand_efficiency_ln>
-1.85073

> <r_i_glide_gscore>
-8.53358

> <r_i_glide_lipo>
-4.65566

> <r_i_glide_hbond>
-0.401755

> <r_i_glide_metal>
-0

> <r_i_glide_rewards>
-0.709793

> <r_i_glide_evdw>
-46.055

> <r_i_glide_ecoul>
-7.43463

> <r_i_glide_erotb>
0.666602

> <r_i_glide_esite>
-0.0150339

> <r_i_glide_emodel>
-81.6095

> <r_i_glide_energy>
-53.4896

> <r_i_glide_einternal>
2.89872

> <i_i_glide_confnum>
485

> <i_i_glide_posenum>
393

> <r_i_glide_eff_state_penalty>
-0

> <r_i_glide_rmsd>
0.112728

> <s_glide_core_constrain_type>
snapped_core_restrain
$$$$