lig_CHEMBL3264994
                    3D
 Schrodinger Suite 2021-1.
 64 68  0  0  1  0            999 V2000
    6.3228   -0.8056   17.2638 H   0  0  0  0  0  0
    5.6783   -0.4949   16.4575 C   0  0  0  0  0  0
    5.9214    0.4237   15.4759 C   0  0  0  0  0  0
    6.7713    1.0484   15.2451 H   0  0  0  0  0  0
    4.7656    0.5108   14.7317 N   0  0  0  0  0  0
    3.8566   -0.4111   15.2888 C   0  0  0  0  0  0
    4.4159   -1.0497   16.3160 N   0  0  0  0  0  0
    2.5664   -0.4717   14.6892 C   0  0  0  0  0  0
    1.6479   -1.3788   15.2461 N   0  0  0  0  0  0
    2.0604   -1.9404   15.9801 H   0  0  0  0  0  0
    0.2725   -1.5822   15.0410 C   0  0  0  0  0  0
   -0.3445   -2.6165   15.7733 C   0  0  0  0  0  0
    0.2330   -3.2101   16.4685 H   0  0  0  0  0  0
   -1.7184   -2.8877   15.6292 C   0  0  0  0  0  0
   -2.1393   -3.6761   16.2337 H   0  0  0  0  0  0
   -2.5195   -2.1306   14.7427 C   0  0  0  0  0  0
   -4.0268   -2.4082   14.5799 C   0  0  0  0  0  0
   -4.7922   -1.4721   15.5396 C   0  0  0  0  0  0
   -5.8726   -1.5632   15.4253 H   0  0  0  0  0  0
   -4.5209   -0.4234   15.4198 H   0  0  0  0  0  0
   -4.5606   -1.7209   16.5770 H   0  0  0  0  0  0
   -4.4129   -3.8596   14.9473 C   0  0  0  0  0  0
   -3.8524   -4.5839   14.3559 H   0  0  0  0  0  0
   -4.2528   -4.0843   16.0016 H   0  0  0  0  0  0
   -5.4723   -4.0404   14.7596 H   0  0  0  0  0  0
   -4.4751   -2.2281   13.1038 C   0  0  0  0  0  0
   -3.9238   -2.9086   12.4515 H   0  0  0  0  0  0
   -5.5335   -2.4609   12.9741 H   0  0  0  0  0  0
   -4.3251   -1.2267   12.7033 H   0  0  0  0  0  0
   -1.9040   -1.0620   14.0487 C   0  0  0  0  0  0
   -2.4600   -0.4038   13.4024 H   0  0  0  0  0  0
   -0.5305   -0.8001   14.1829 C   0  0  0  0  0  0
   -0.1351    0.0282   13.6181 H   0  0  0  0  0  0
    2.2367    0.3007   13.6921 N   0  0  0  0  0  0
    3.1483    1.2100   13.2025 C   0  0  0  0  0  0
    2.6758    2.0854   12.1086 C   0  0  0  0  0  0
    3.5812    2.5823   11.1414 C   0  0  0  0  0  0
    4.6249    2.3081   11.1833 H   0  0  0  0  0  0
    3.1485    3.4302   10.1051 C   0  0  0  0  0  0
    3.8587    3.7978    9.3792 H   0  0  0  0  0  0
    1.7950    3.8032   10.0189 C   0  0  0  0  0  0
    1.4720    4.4676    9.2279 H   0  0  0  0  0  0
    0.8746    3.3163   10.9678 C   0  0  0  0  0  0
   -0.4587    3.7846   10.9308 N   0  0  0  0  0  0
   -0.5770    4.7783   10.7971 H   0  0  0  0  0  0
   -1.5635    3.0826   11.2327 C   0  0  0  0  0  0
   -1.6538    1.8554   11.1757 O   0  0  0  0  0  0
   -2.7347    3.9337   11.6137 C   0  0  0  0  0  0
   -4.0090    3.7500   11.0326 C   0  0  0  0  0  0
   -4.1559    3.0043   10.2627 H   0  0  0  0  0  0
   -5.0959    4.5518   11.4472 C   0  0  0  0  0  0
   -6.0641    4.4148   10.9890 H   0  0  0  0  0  0
   -4.9302    5.5172   12.4707 C   0  0  0  0  0  0
   -6.0860    6.3511   12.9593 C   0  0  0  0  0  0
   -7.2353    6.1001   12.5357 O   0  0  0  0  0  0
   -5.8658    7.2644   13.7899 O   0  5  0  0  0  0
   -3.6566    5.6817   13.0497 C   0  0  0  0  0  0
   -3.5092    6.3907   13.8456 H   0  0  0  0  0  0
   -2.5674    4.9088   12.6178 C   0  0  0  0  0  0
   -1.6042    5.0421   13.0887 H   0  0  0  0  0  0
    1.3175    2.4665   12.0068 C   0  0  0  0  0  0
    0.6128    2.1345   12.7566 H   0  0  0  0  0  0
    4.4266    1.3144   13.6980 C   0  0  0  0  0  0
    5.1707    2.0237   13.3545 H   0  0  0  0  0  0
  1  2  1  0  0  0
  2  7  1  0  0  0
  2  3  2  0  0  0
  3  4  1  0  0  0
  3  5  1  0  0  0
  5 63  1  0  0  0
  5  6  1  0  0  0
  6  7  2  0  0  0
  6  8  1  0  0  0
  8  9  1  0  0  0
  8 34  2  0  0  0
  9 10  1  0  0  0
  9 11  1  0  0  0
 11 32  1  0  0  0
 11 12  2  0  0  0
 12 13  1  0  0  0
 12 14  1  0  0  0
 14 15  1  0  0  0
 14 16  2  0  0  0
 16 17  1  0  0  0
 16 30  1  0  0  0
 17 18  1  0  0  0
 17 22  1  0  0  0
 17 26  1  0  0  0
 18 19  1  0  0  0
 18 20  1  0  0  0
 18 21  1  0  0  0
 22 23  1  0  0  0
 22 24  1  0  0  0
 22 25  1  0  0  0
 26 27  1  0  0  0
 26 28  1  0  0  0
 26 29  1  0  0  0
 30 31  1  0  0  0
 30 32  2  0  0  0
 32 33  1  0  0  0
 34 35  1  0  0  0
 35 36  1  0  0  0
 35 63  2  0  0  0
 36 61  1  0  0  0
 36 37  2  0  0  0
 37 38  1  0  0  0
 37 39  1  0  0  0
 39 40  1  0  0  0
 39 41  2  0  0  0
 41 42  1  0  0  0
 41 43  1  0  0  0
 43 44  1  0  0  0
 43 61  2  0  0  0
 44 45  1  0  0  0
 44 46  1  0  0  0
 46 47  2  0  0  0
 46 48  1  0  0  0
 48 59  1  0  0  0
 48 49  2  0  0  0
 49 50  1  0  0  0
 49 51  1  0  0  0
 51 52  1  0  0  0
 51 53  2  0  0  0
 53 54  1  0  0  0
 53 57  1  0  0  0
 54 55  2  0  0  0
 54 56  1  0  0  0
 57 58  1  0  0  0
 57 59  2  0  0  0
 59 60  1  0  0  0
 61 62  1  0  0  0
 63 64  1  0  0  0
M  CHG  1  56  -1
M  END
> <s_m_source_file>
ligprep_syk.smi

> <i_m_source_file_index>
2

> <i_lp_mmshare_version>
53161

> <i_f3d_flags>
0

> <s_epik_input>
W0NIM11DKFtDSDNdKShbQ0gzXSljKFtjSF1bY0hdMSlbY0hdW2NIXWMxW05IXWMoYyhuMjMpbltjSF1bY0hdMiluYyhbY0hdMyktYzRbY0hdW2NIXVtjSF1jKFtjSF00KVtOSF1DKD1PKWM1W2NIXVtjSF1jKEMoPU8pW09IXSlbY0hdW2NIXTU=

> <s_epik_cmdline>
J2VwaWtfcHl0aG9uJywgJy1waHQnLCAnMC4wJywgJy1waCcsICc3LjQnLCAnLXRuJywgJzgnLCAnLW1hJywgJzUwMCcsICctaW1hZScsICc8aW5maWxlLm1hZT4nLCAnLW9tYWUnLCAnPG91dGZpbGUubWFlPic=

> <r_lp_tautomer_probability>
1

> <r_epik_Ionization_Penalty>
0.001

> <r_epik_Ionization_Penalty_Charging>
0.001

> <r_epik_Ionization_Penalty_Neutral>
0

> <r_epik_State_Penalty>
-0

> <r_epik_Charging_Adjusted_Penalty>
0.000981166

> <i_epik_Tot_Q>
-1

> <i_epik_Tot_abs_Q>
1

> <s_lp_Force_Field>
S-OPLS

> <r_lp_Energy>
64.7515

> <b_lp_Chiralities_Consistent>
1

> <s_lp_Variant>
lig_CHEMBL3264994-1

> <s_i_glide_gridfile>
glide-grid_4PV0-SYK

> <i_i_glide_lignum>
2

> <i_i_glide_rotatable_bonds>
8

> <r_i_docking_score>
-8.4189

> <r_i_glide_ligand_efficiency>
-0.22155

> <r_i_glide_ligand_efficiency_sa>
-0.744846

> <r_i_glide_ligand_efficiency_ln>
-1.81536

> <r_i_glide_gscore>
-8.4189

> <r_i_glide_lipo>
-2.83206

> <r_i_glide_hbond>
-0.45936

> <r_i_glide_metal>
-0

> <r_i_glide_rewards>
-1.21832

> <r_i_glide_evdw>
-52.5704

> <r_i_glide_ecoul>
-12.2073

> <r_i_glide_erotb>
0.562229

> <r_i_glide_esite>
-0.0117677

> <r_i_glide_emodel>
-96.7093

> <r_i_glide_energy>
-64.7778

> <r_i_glide_einternal>
9.45629

> <i_i_glide_confnum>
392

> <i_i_glide_posenum>
258

> <r_i_glide_eff_state_penalty>
-0

> <r_i_glide_rmsd>
0.063051

> <s_glide_core_constrain_type>
snapped_core_restrain
$$$$