lig_24
                    3D
 Schrodinger Suite 2021-1.
 49 52  0  0  1  0            999 V2000
   30.6517   18.1820    8.7491 H   0  0  0  0  0  0
   29.6956   17.9716    9.2053 C   0  0  0  0  0  0
   28.9900   16.8053    8.8645 C   0  0  0  0  0  0
   29.4159   16.1344    8.1343 H   0  0  0  0  0  0
   27.7279   16.5193    9.4350 C   0  0  0  0  0  0
   26.9866   15.3095    9.0216 C   0  0  0  0  0  0
   27.6749   14.1046    8.7690 C   0  0  0  0  0  0
   28.7439   14.0503    8.9129 H   0  0  0  0  0  0
   26.9949   12.9542    8.3302 C   0  0  0  0  0  0
   27.5453   12.0411    8.1564 H   0  0  0  0  0  0
   25.6039   12.9790    8.1361 C   0  0  0  0  0  0
   24.9972   11.8072    7.7373 O   0  0  0  0  0  0
   23.5927   11.6796    7.9541 C   0  0  0  0  0  0
   23.3164   11.4288    9.4539 C   0  0  0  0  0  0
   22.2456   11.3757    9.6554 H   0  0  0  0  0  0
   23.7584   10.4891    9.7864 H   0  0  0  0  0  0
   23.7233   12.2150   10.0921 H   0  0  0  0  0  0
   23.1519   10.4477    7.1486 C   0  0  0  0  0  0
   22.0852   10.2565    7.2723 H   0  0  0  0  0  0
   23.3421   10.5838    6.0840 H   0  0  0  0  0  0
   23.6911    9.5554    7.4663 H   0  0  0  0  0  0
   22.8797   12.9285    7.4050 C   0  0  0  0  0  0
   23.0653   12.9614    6.3304 H   0  0  0  0  0  0
   21.7973   12.8395    7.5156 H   0  0  0  0  0  0
   23.3890   14.2390    8.0398 C   0  0  1  0  0  0
   23.0225   15.4388    7.1536 C   0  0  0  0  0  0
   23.4617   15.6254    6.0147 O   0  0  0  0  0  0
   22.1718   16.2149    7.8151 N   0  0  0  0  0  0
   21.6036   17.4863    7.3904 C   0  0  0  0  0  0
   21.8910   18.2488    8.1086 H   0  0  0  0  0  0
   21.9581   17.7918    6.4046 H   0  0  0  0  0  0
   20.5159   17.4354    7.3619 H   0  0  0  0  0  0
   21.9580   15.6420    9.0512 C   0  0  0  0  0  0
   21.1005   16.2638    9.9349 N   0  0  0  0  0  0
   21.0496   15.9772   10.9099 H   0  0  0  0  0  0
   22.6154   14.5529    9.2344 N   0  0  0  0  0  0
   24.8912   14.1871    8.3437 C   0  0  0  0  0  0
   25.5877   15.3307    8.8152 C   0  0  0  0  0  0
   25.0432   16.2481    8.9901 H   0  0  0  0  0  0
   27.2015   17.4359   10.3751 C   0  0  0  0  0  0
   26.2357   17.2572   10.8248 H   0  0  0  0  0  0
   27.9107   18.6065   10.7180 C   0  0  0  0  0  0
   27.3056   19.6253   11.6508 C   0  0  0  0  0  0
   28.1724   20.5664   11.9812 F   0  0  0  0  0  0
   26.8066   19.0702   12.7472 F   0  0  0  0  0  0
   26.3786   20.2505   10.9648 F   0  0  0  0  0  0
   29.1520   18.8771   10.1243 C   0  0  0  0  0  0
   29.6983   19.7802   10.3610 H   0  0  0  0  0  0
   20.6717   17.1753    9.7971 H   0  0  0  0  0  0
  1  2  1  0  0  0
  2 47  1  0  0  0
  2  3  2  0  0  0
  3  4  1  0  0  0
  3  5  1  0  0  0
  5  6  1  0  0  0
  5 40  2  0  0  0
  6 38  1  0  0  0
  6  7  2  0  0  0
  7  8  1  0  0  0
  7  9  1  0  0  0
  9 10  1  0  0  0
  9 11  2  0  0  0
 11 37  1  0  0  0
 11 12  1  0  0  0
 12 13  1  0  0  0
 13 14  1  0  0  0
 13 18  1  0  0  0
 13 22  1  0  0  0
 14 15  1  0  0  0
 14 16  1  0  0  0
 14 17  1  0  0  0
 18 19  1  0  0  0
 18 20  1  0  0  0
 18 21  1  0  0  0
 22 23  1  0  0  0
 22 24  1  0  0  0
 22 25  1  0  0  0
 25 36  1  0  0  0
 25 26  1  0  0  0
 25 37  1  0  0  0
 26 27  2  0  0  0
 26 28  1  0  0  0
 28 29  1  0  0  0
 28 33  1  0  0  0
 29 30  1  0  0  0
 29 31  1  0  0  0
 29 32  1  0  0  0
 33 34  1  0  0  0
 33 36  2  0  0  0
 34 35  1  0  0  0
 34 49  1  0  0  0
 37 38  2  0  0  0
 38 39  1  0  0  0
 40 41  1  0  0  0
 40 42  1  0  0  0
 42 43  1  0  0  0
 42 47  2  0  0  0
 43 44  1  0  0  0
 43 45  1  0  0  0
 43 46  1  0  0  0
 47 48  1  0  0  0
M  END
> <s_m_source_file>
ligprep_bace_hunt.smi

> <i_m_source_file_index>
15

> <i_lp_mmshare_version>
53161

> <i_f3d_flags>
0

> <s_epik_input>
RkMoRikoRiljKFtjSF0xKVtjSF1bY0hdW2NIXWMxLWMoW2NIXTIpW2NIXVtjSF1jKE9DKFtDSDNdKShbQ0gzXSlbQ0gyXTMpYzJbQ0BAXTM0Qyg9TylOKFtDSDNdKUMoPU40KVtOSDJd

> <s_epik_cmdline>
J2VwaWtfcHl0aG9uJywgJy1waHQnLCAnMC4wJywgJy1waCcsICc3LjQnLCAnLXRuJywgJzgnLCAnLW1hJywgJzUwMCcsICctaW1hZScsICc8aW5maWxlLm1hZT4nLCAnLW9tYWUnLCAnPG91dGZpbGUubWFlPic=

> <r_lp_tautomer_probability>
1

> <r_epik_Ionization_Penalty>
1.0455

> <r_epik_Ionization_Penalty_Charging>
0

> <r_epik_Ionization_Penalty_Neutral>
1.0455

> <r_epik_State_Penalty>
-0

> <r_epik_Charging_Adjusted_Penalty>
0

> <i_epik_Tot_Q>
0

> <i_epik_Tot_abs_Q>
0

> <s_epik_Chemistry_Notes>
This compound has an imine and may undergo hydrolysis.

> <s_lp_Force_Field>
S-OPLS

> <r_lp_Energy>
37.3282

> <b_lp_Chiralities_Consistent>
1

> <s_lp_Variant>
lig_24-1

> <s_i_glide_gridfile>
glide-grid_4JPC-BACE_HUNT

> <i_i_glide_lignum>
15

> <i_i_glide_rotatable_bonds>
2

> <r_i_docking_score>
-7.46738

> <r_i_glide_ligand_efficiency>
-0.257496

> <r_i_glide_ligand_efficiency_sa>
-0.791109

> <r_i_glide_ligand_efficiency_ln>
-1.70984

> <r_i_glide_gscore>
-7.46738

> <r_i_glide_lipo>
-2.69924

> <r_i_glide_hbond>
-0.234984

> <r_i_glide_metal>
-0

> <r_i_glide_rewards>
-1.70466

> <r_i_glide_evdw>
-39.3316

> <r_i_glide_ecoul>
-6.37079

> <r_i_glide_erotb>
0.241297

> <r_i_glide_esite>
-0.147602

> <r_i_glide_emodel>
-65.819

> <r_i_glide_energy>
-45.7024

> <r_i_glide_einternal>
0.128373

> <i_i_glide_confnum>
20

> <i_i_glide_posenum>
19

> <r_i_glide_eff_state_penalty>
-0

> <r_i_glide_rmsd>
0.0870776

> <s_glide_core_constrain_type>
snapped_core_restrain
$$$$