lig_CHEMBL1086409
                    3D
 Schrodinger Suite 2021-1.
 51 54  0  0  1  0            999 V2000
   33.9673    8.5147   14.3190 H   0  0  0  0  0  0
   33.0782    8.2040   14.8482 C   0  0  0  0  0  0
   31.8112    8.6555   14.4343 C   0  0  0  0  0  0
   31.7360    9.3138   13.5813 H   0  0  0  0  0  0
   30.6604    8.2681   15.1504 C   0  0  0  0  0  0
   29.3032    8.7956   14.7473 C   0  0  2  0  0  0
   28.5650    8.3619   15.4244 H   0  0  0  0  0  0
   28.9751    8.3216   13.4166 N   0  0  0  0  0  0
   29.1671    7.3462   13.2284 H   0  0  0  0  0  0
   27.9496    8.9545   12.7067 C   0  0  0  0  0  0
   27.5581    8.3921   11.4796 C   0  0  0  0  0  0
   28.0147    7.4818   11.1236 H   0  0  0  0  0  0
   26.5738    9.0240   10.6956 C   0  0  0  0  0  0
   26.2963    8.6026    9.7405 H   0  0  0  0  0  0
   25.9794   10.2223   11.1402 C   0  0  0  0  0  0
   24.9994   10.9574   10.2469 C   0  0  0  0  0  0
   25.6834   11.7517    9.4251 F   0  0  0  0  0  0
   24.3105   10.0821    9.5187 F   0  0  0  0  0  0
   24.1513   11.7086   10.9510 F   0  0  0  0  0  0
   26.3479   10.7673   12.3854 C   0  0  0  0  0  0
   25.9071   11.6898   12.7303 H   0  0  0  0  0  0
   27.3362   10.1421   13.1735 C   0  0  0  0  0  0
   27.7812   10.7982   14.4707 C   0  0  1  0  0  0
   27.7921   11.8789   14.3041 H   0  0  0  0  0  0
   26.8756   10.5018   15.5406 O   0  0  0  0  0  0
   27.1624   11.2147   16.7431 C   0  0  1  0  0  0
   27.2099   12.2757   16.4845 H   0  0  0  0  0  0
   25.9772   11.0547   17.7322 C   0  0  0  0  0  0
   25.7559   12.0055   18.2161 H   0  0  0  0  0  0
   25.0803   10.8083   17.1606 H   0  0  0  0  0  0
   26.1527   10.0038   18.7654 N   0  3  0  0  0  0
   25.2501    9.5726   18.9181 H   0  0  0  0  0  0
   26.6393   10.4713   20.0744 C   0  0  0  0  0  0
   26.7219    9.6270   20.7593 H   0  0  0  0  0  0
   25.9491   11.1944   20.5090 H   0  0  0  0  0  0
   27.6202   10.9404   20.0002 H   0  0  0  0  0  0
   28.5421   10.7664   17.2678 C   0  0  0  0  0  0
   28.8171   11.3476   18.1485 H   0  0  0  0  0  0
   28.5149    9.7174   17.5626 H   0  0  0  0  0  0
   29.6219   10.9504   16.2008 C   0  0  0  0  0  0
   29.8070   12.0169   16.0683 H   0  0  0  0  0  0
   30.5574   10.5280   16.5636 H   0  0  0  0  0  0
   29.2046   10.3428   14.8468 C   0  0  1  0  0  0
   29.8894   10.7511   14.0997 H   0  0  0  0  0  0
   30.7673    7.3857   16.2371 C   0  0  0  0  0  0
   29.8865    7.0700   16.7755 H   0  0  0  0  0  0
   32.0342    6.9358   16.6452 C   0  0  0  0  0  0
   32.1303    6.2943   17.5080 H   0  0  0  0  0  0
   33.1754    7.3720   15.9751 C   0  0  0  0  0  0
   34.3672    7.0045   16.4647 F   0  0  0  0  0  0
   26.7672    9.2909   18.3978 H   0  0  0  0  0  0
  1  2  1  0  0  0
  2 49  1  0  0  0
  2  3  2  0  0  0
  3  4  1  0  0  0
  3  5  1  0  0  0
  5  6  1  0  0  0
  5 45  2  0  0  0
  6 43  1  0  0  0
  6  7  1  0  0  0
  6  8  1  0  0  0
  8  9  1  0  0  0
  8 10  1  0  0  0
 10 22  1  0  0  0
 10 11  2  0  0  0
 11 12  1  0  0  0
 11 13  1  0  0  0
 13 14  1  0  0  0
 13 15  2  0  0  0
 15 16  1  0  0  0
 15 20  1  0  0  0
 16 17  1  0  0  0
 16 18  1  0  0  0
 16 19  1  0  0  0
 20 21  1  0  0  0
 20 22  2  0  0  0
 22 23  1  0  0  0
 23 43  1  0  0  0
 23 24  1  0  0  0
 23 25  1  0  0  0
 25 26  1  0  0  0
 26 27  1  0  0  0
 26 28  1  0  0  0
 26 37  1  0  0  0
 28 29  1  0  0  0
 28 30  1  0  0  0
 28 31  1  0  0  0
 31 32  1  0  0  0
 31 33  1  0  0  0
 31 51  1  0  0  0
 33 34  1  0  0  0
 33 35  1  0  0  0
 33 36  1  0  0  0
 37 38  1  0  0  0
 37 39  1  0  0  0
 37 40  1  0  0  0
 40 41  1  0  0  0
 40 42  1  0  0  0
 40 43  1  0  0  0
 43 44  1  0  0  0
 45 46  1  0  0  0
 45 47  1  0  0  0
 47 48  1  0  0  0
 47 49  2  0  0  0
 49 50  1  0  0  0
M  CHG  1  31   1
M  END
> <s_m_source_file>
ligprep_eg5.smi

> <i_m_source_file_index>
20

> <i_lp_mmshare_version>
53161

> <i_f3d_flags>
0

> <s_epik_input>
W2NIXTFbY0hdYyhGKVtjSF1bY0hdYzFbQ0BIXShbTkhdMilbQ0BASF0oW0NASF0zYyhjMjQpW2NIXWMoQyhGKShGKUYpW2NIXVtjSF00KVtDSDJdW0NIMl1bQ0BASF0oTzMpW0NIMl1bTkhdW0NIM10=

> <s_epik_cmdline>
J2VwaWtfcHl0aG9uJywgJy1waHQnLCAnMC4wJywgJy1waCcsICc3LjQnLCAnLXRuJywgJzgnLCAnLW1hJywgJzUwMCcsICctaW1hZScsICc8aW5maWxlLm1hZT4nLCAnLW9tYWUnLCAnPG91dGZpbGUubWFlPic=

> <r_lp_tautomer_probability>
1

> <r_epik_Ionization_Penalty>
0.0023

> <r_epik_Ionization_Penalty_Charging>
0.0023

> <r_epik_Ionization_Penalty_Neutral>
0

> <r_epik_State_Penalty>
-0

> <r_epik_Charging_Adjusted_Penalty>
0.00233856

> <i_epik_Tot_Q>
1

> <i_epik_Tot_abs_Q>
1

> <s_lp_Force_Field>
S-OPLS

> <r_lp_Energy>
39.4847

> <b_lp_Chiralities_Consistent>
1

> <s_lp_Variant>
lig_CHEMBL1086409-1

> <s_i_glide_gridfile>
glide-grid_3L9H-EG5

> <i_i_glide_lignum>
21

> <i_i_glide_rotatable_bonds>
4

> <r_i_docking_score>
-8.46883

> <r_i_glide_ligand_efficiency>
-0.302458

> <r_i_glide_ligand_efficiency_sa>
-0.918442

> <r_i_glide_ligand_efficiency_ln>
-1.95486

> <r_i_glide_gscore>
-8.46883

> <r_i_glide_lipo>
-4.67939

> <r_i_glide_hbond>
-0.0897425

> <r_i_glide_metal>
-0

> <r_i_glide_rewards>
-1.95097

> <r_i_glide_evdw>
-41.4984

> <r_i_glide_ecoul>
-1.1606

> <r_i_glide_erotb>
0.500272

> <r_i_glide_esite>
0

> <r_i_glide_emodel>
-62.4916

> <r_i_glide_energy>
-42.659

> <r_i_glide_einternal>
-5.37275e-08

> <i_i_glide_confnum>
8

> <i_i_glide_posenum>
8

> <r_i_glide_eff_state_penalty>
-0

> <r_i_glide_rmsd>
0.0703677

> <s_glide_core_constrain_type>
snapped_core_restrain
$$$$