lig_CHEMBL1077204
                    3D
 Schrodinger Suite 2021-1.
 66 69  0  0  1  0            999 V2000
   34.2509    7.0216   16.2302 H   0  0  0  0  0  0
   33.2689    7.3705   15.9453 C   0  0  0  0  0  0
   33.1104    8.1977   14.8222 C   0  0  0  0  0  0
   33.9672    8.4963   14.2416 H   0  0  0  0  0  0
   31.8319    8.6482   14.4554 C   0  0  0  0  0  0
   31.7208    9.2832   13.5908 H   0  0  0  0  0  0
   30.6979    8.2663   15.2041 C   0  0  0  0  0  0
   29.3210    8.7733   14.8024 C   0  0  2  0  0  0
   28.5890    8.3400   15.4838 H   0  0  0  0  0  0
   28.9843    8.2873   13.4698 N   0  0  0  0  0  0
   29.1557    7.3049   13.2991 H   0  0  0  0  0  0
   27.9670    8.9253   12.7438 C   0  0  0  0  0  0
   27.5680    8.3631   11.5186 C   0  0  0  0  0  0
   28.0167    7.4424   11.1700 H   0  0  0  0  0  0
   26.6013    9.0013   10.7236 C   0  0  0  0  0  0
   26.3211    8.5697    9.7740 H   0  0  0  0  0  0
   26.0145   10.2100   11.1552 C   0  0  0  0  0  0
   25.0436   10.9450   10.2520 C   0  0  0  0  0  0
   25.7324   11.7476    9.4403 F   0  0  0  0  0  0
   24.3561   10.0741    9.5186 F   0  0  0  0  0  0
   24.1873   11.6879   10.9525 F   0  0  0  0  0  0
   26.3848   10.7551   12.3988 C   0  0  0  0  0  0
   25.9522   11.6919   12.7250 H   0  0  0  0  0  0
   27.3648   10.1284   13.1931 C   0  0  0  0  0  0
   27.8043   10.7842   14.4899 C   0  0  1  0  0  0
   27.8272   11.8616   14.3112 H   0  0  0  0  0  0
   26.8778   10.5133   15.5449 O   0  0  0  0  0  0
   27.1559   11.2239   16.7514 C   0  0  1  0  0  0
   27.2241   12.2838   16.4990 H   0  0  0  0  0  0
   25.9483   11.0650   17.7139 C   0  0  0  0  0  0
   25.6629   12.0471   18.0979 H   0  0  0  0  0  0
   25.0765   10.7125   17.1610 H   0  0  0  0  0  0
   26.1779   10.1549   18.8438 N   0  0  0  0  0  0
   25.9706    9.1809   18.6749 H   0  0  0  0  0  0
   26.6865   10.5309   20.0264 C   0  0  0  0  0  0
   26.9491   11.6960   20.3189 O   0  0  0  0  0  0
   26.9392    9.4870   20.8283 N   0  0  0  0  0  0
   26.6488    8.5742   20.5109 H   0  0  0  0  0  0
   27.6987    9.5239   22.0775 C   0  0  0  0  0  0
   28.4141    8.7053   22.0195 H   0  0  0  0  0  0
   28.2760   10.4461   22.1591 H   0  0  0  0  0  0
   26.7928    9.3361   23.3005 C   0  0  0  0  0  0
   26.2355   10.2486   23.5140 H   0  0  0  0  0  0
   26.0551    8.5659   23.0755 H   0  0  0  0  0  0
   27.5602    8.9024   24.4999 N   0  3  0  0  0  0
   28.5152    9.9172   25.0053 C   0  0  0  0  0  0
   27.9966   10.8291   25.3022 H   0  0  0  0  0  0
   29.2583   10.1708   24.2543 H   0  0  0  0  0  0
   29.0520    9.5336   25.8724 H   0  0  0  0  0  0
   26.6749    8.3950   25.5765 C   0  0  0  0  0  0
   26.0272    9.1816   25.9568 H   0  0  0  0  0  0
   27.2648    8.0062   26.4041 H   0  0  0  0  0  0
   26.0473    7.5805   25.2101 H   0  0  0  0  0  0
   28.5249   10.7535   17.2893 C   0  0  0  0  0  0
   28.7901   11.3145   18.1884 H   0  0  0  0  0  0
   28.4781    9.6999   17.5730 H   0  0  0  0  0  0
   29.6247   10.9366   16.2418 C   0  0  0  0  0  0
   29.8079   12.0030   16.1061 H   0  0  0  0  0  0
   30.5546   10.5158   16.6188 H   0  0  0  0  0  0
   29.2192   10.3196   14.8890 C   0  0  1  0  0  0
   29.9116   10.7228   14.1469 H   0  0  0  0  0  0
   30.8532    7.4072   16.3102 C   0  0  0  0  0  0
   29.9892    7.0818   16.8716 H   0  0  0  0  0  0
   32.1388    6.9701   16.6804 C   0  0  0  0  0  0
   32.2548    6.3100   17.5289 H   0  0  0  0  0  0
   28.1118    8.1087   24.2138 H   0  0  0  0  0  0
  1  2  1  0  0  0
  2 64  1  0  0  0
  2  3  2  0  0  0
  3  4  1  0  0  0
  3  5  1  0  0  0
  5  6  1  0  0  0
  5  7  2  0  0  0
  7  8  1  0  0  0
  7 62  1  0  0  0
  8 60  1  0  0  0
  8  9  1  0  0  0
  8 10  1  0  0  0
 10 11  1  0  0  0
 10 12  1  0  0  0
 12 24  1  0  0  0
 12 13  2  0  0  0
 13 14  1  0  0  0
 13 15  1  0  0  0
 15 16  1  0  0  0
 15 17  2  0  0  0
 17 18  1  0  0  0
 17 22  1  0  0  0
 18 19  1  0  0  0
 18 20  1  0  0  0
 18 21  1  0  0  0
 22 23  1  0  0  0
 22 24  2  0  0  0
 24 25  1  0  0  0
 25 60  1  0  0  0
 25 26  1  0  0  0
 25 27  1  0  0  0
 27 28  1  0  0  0
 28 29  1  0  0  0
 28 30  1  0  0  0
 28 54  1  0  0  0
 30 31  1  0  0  0
 30 32  1  0  0  0
 30 33  1  0  0  0
 33 34  1  0  0  0
 33 35  1  0  0  0
 35 36  2  0  0  0
 35 37  1  0  0  0
 37 38  1  0  0  0
 37 39  1  0  0  0
 39 40  1  0  0  0
 39 41  1  0  0  0
 39 42  1  0  0  0
 42 43  1  0  0  0
 42 44  1  0  0  0
 42 45  1  0  0  0
 45 46  1  0  0  0
 45 50  1  0  0  0
 45 66  1  0  0  0
 46 47  1  0  0  0
 46 48  1  0  0  0
 46 49  1  0  0  0
 50 51  1  0  0  0
 50 52  1  0  0  0
 50 53  1  0  0  0
 54 55  1  0  0  0
 54 56  1  0  0  0
 54 57  1  0  0  0
 57 58  1  0  0  0
 57 59  1  0  0  0
 57 60  1  0  0  0
 60 61  1  0  0  0
 62 63  1  0  0  0
 62 64  2  0  0  0
 64 65  1  0  0  0
M  CHG  1  45   1
M  END
> <s_m_source_file>
ligprep_eg5.smi

> <i_m_source_file_index>
1

> <i_lp_mmshare_version>
53161

> <i_f3d_flags>
0

> <s_epik_input>
W2NIXTFbY0hdW2NIXVtjSF1bY0hdYzFbQ0BIXShbTkhdMilbQ0BASF0oW0NASF0zYyhjMjQpW2NIXWMoQyhGKShGKUYpW2NIXVtjSF00KVtDSDJdW0NIMl1bQ0BASF0oTzMpW0NIMl1bTkhdQyg9TylbTkhdW0NIMl1bQ0gyXU4oW0NIM10pW0NIM10=

> <s_epik_cmdline>
J2VwaWtfcHl0aG9uJywgJy1waHQnLCAnMC4wJywgJy1waCcsICc3LjQnLCAnLXRuJywgJzgnLCAnLW1hJywgJzUwMCcsICctaW1hZScsICc8aW5maWxlLm1hZT4nLCAnLW9tYWUnLCAnPG91dGZpbGUubWFlPic=

> <r_lp_tautomer_probability>
1

> <r_epik_Ionization_Penalty>
0.0082

> <r_epik_Ionization_Penalty_Charging>
0.0082

> <r_epik_Ionization_Penalty_Neutral>
0

> <r_epik_State_Penalty>
-0

> <r_epik_Charging_Adjusted_Penalty>
0.00819794

> <i_epik_Tot_Q>
1

> <i_epik_Tot_abs_Q>
1

> <s_lp_Force_Field>
S-OPLS

> <r_lp_Energy>
45.9171

> <b_lp_Chiralities_Consistent>
1

> <s_lp_Variant>
lig_CHEMBL1077204-1

> <s_i_glide_gridfile>
glide-grid_3L9H-EG5

> <i_i_glide_lignum>
1

> <i_i_glide_rotatable_bonds>
9

> <r_i_docking_score>
-8.51649

> <r_i_glide_ligand_efficiency>
-0.250485

> <r_i_glide_ligand_efficiency_sa>
-0.811474

> <r_i_glide_ligand_efficiency_ln>
-1.88153

> <r_i_glide_gscore>
-8.51649

> <r_i_glide_lipo>
-4.69794

> <r_i_glide_hbond>
-0.143412

> <r_i_glide_metal>
-0

> <r_i_glide_rewards>
-1.349

> <r_i_glide_evdw>
-51.0597

> <r_i_glide_ecoul>
-3.6113

> <r_i_glide_erotb>
0.79949

> <r_i_glide_esite>
-0.0309461

> <r_i_glide_emodel>
-89.6673

> <r_i_glide_energy>
-54.671

> <r_i_glide_einternal>
1.91704e-07

> <i_i_glide_confnum>
8

> <i_i_glide_posenum>
10

> <r_i_glide_eff_state_penalty>
-0

> <r_i_glide_rmsd>
0.0712963

> <s_glide_core_constrain_type>
snapped_core_restrain
$$$$