lig_23466
                    3D
 Schrodinger Suite 2021-1.
 29 30  0  0  1  0            999 V2000
   44.4763    8.8502   -0.1119 H   0  0  0  0  0  0
   45.2428    9.4801    0.3160 C   0  0  0  0  0  0
   44.9708   10.8358    0.5871 C   0  0  0  0  0  0
   45.9604   11.6713    1.1528 C   0  0  0  0  0  0
   47.2325   11.1120    1.4153 C   0  0  0  0  0  0
   47.5012    9.7519    1.1828 C   0  0  0  0  0  0
   46.5002    8.9320    0.6326 C   0  0  0  0  0  0
   46.6922    7.8851    0.4519 H   0  0  0  0  0  0
   48.7526    9.2333    1.5121 N   0  0  0  0  0  0
   48.8516    8.2325    1.6123 H   0  0  0  0  0  0
   49.3583    9.7848    2.1069 H   0  0  0  0  0  0
   48.0232   11.7258    1.8123 H   0  0  0  0  0  0
   45.6834   13.0721    1.4897 C   0  0  0  0  0  0
   46.1577   13.8405    2.5234 C   0  0  0  0  0  0
   45.6985   15.1813    2.5477 C   0  0  0  0  0  0
   44.8257   15.4541    1.5301 C   0  0  0  0  0  0
   44.5800   14.0359    0.5222 S   0  0  0  0  0  0
   44.0902   16.6952    1.2034 C   0  0  0  0  0  0
   43.5593   16.8226    0.0846 O   0  0  0  0  0  0
   44.0250   17.6077    2.0641 O   0  5  0  0  0  0
   46.0233   16.0513    3.5218 O   0  0  0  0  0  0
   47.2372   16.7567    3.3528 C   0  0  0  0  0  0
   47.1252   17.5282    2.5889 H   0  0  0  0  0  0
   48.0325   16.0907    3.0195 H   0  0  0  0  0  0
   47.6280   17.3975    4.6905 C   0  0  0  0  0  0
   48.7274   17.9999    4.7169 O   0  0  0  0  0  0
   46.8228   17.2891    5.6564 O   0  5  0  0  0  0
   47.2935   13.2218    3.9163 Br  0  0  0  0  0  0
   43.9908   11.2266    0.3628 H   0  0  0  0  0  0
  1  2  1  0  0  0
  2  7  1  0  0  0
  2  3  2  0  0  0
  3  4  1  0  0  0
  3 29  1  0  0  0
  4  5  2  0  0  0
  4 13  1  0  0  0
  5  6  1  0  0  0
  5 12  1  0  0  0
  6  7  2  0  0  0
  6  9  1  0  0  0
  7  8  1  0  0  0
  9 10  1  0  0  0
  9 11  1  0  0  0
 13 17  1  0  0  0
 13 14  2  0  0  0
 14 15  1  0  0  0
 14 28  1  0  0  0
 15 16  2  0  0  0
 15 21  1  0  0  0
 16 17  1  0  0  0
 16 18  1  0  0  0
 18 19  2  0  0  0
 18 20  1  0  0  0
 21 22  1  0  0  0
 22 23  1  0  0  0
 22 24  1  0  0  0
 22 25  1  0  0  0
 25 26  2  0  0  0
 25 27  1  0  0  0
M  CHG  2  20  -1  27  -1
M  END
> <s_m_source_file>
ligprep_ptp1b.smi

> <i_m_source_file_index>
5

> <i_lp_mmshare_version>
53161

> <i_f3d_flags>
0

> <s_epik_input>
W2NIXTFjKFtOSDJdKVtjSF1bY0hdW2NIXWMxLWMyYyhCciljKGMoczIpQyg9TylbT0hdKU9bQ0gyXUMoPU8pW09IXQ==

> <s_epik_cmdline>
J2VwaWtfcHl0aG9uJywgJy1waHQnLCAnMC4wJywgJy1waCcsICc3LjQnLCAnLXRuJywgJzgnLCAnLW1hJywgJzUwMCcsICctaW1hZScsICc8aW5maWxlLm1hZT4nLCAnLW9tYWUnLCAnPG91dGZpbGUubWFlPic=

> <r_lp_tautomer_probability>
1

> <r_epik_Ionization_Penalty>
0.0006

> <r_epik_Ionization_Penalty_Charging>
0.0001

> <r_epik_Ionization_Penalty_Neutral>
0.0005

> <r_epik_State_Penalty>
-0

> <r_epik_Charging_Adjusted_Penalty>
9.21585e-05

> <i_epik_Tot_Q>
-2

> <i_epik_Tot_abs_Q>
2

> <s_lp_Force_Field>
S-OPLS

> <r_lp_Energy>
38.4998

> <b_lp_Chiralities_Consistent>
1

> <s_lp_Variant>
lig_23466-1

> <s_i_glide_gridfile>
glide-grid_2QBS-PTP1B

> <i_i_glide_lignum>
5

> <i_i_glide_rotatable_bonds>
5

> <r_i_docking_score>
-8.32461

> <r_i_glide_ligand_efficiency>
-0.39641

> <r_i_glide_ligand_efficiency_sa>
-1.09366

> <r_i_glide_ligand_efficiency_ln>
-2.05824

> <r_i_glide_gscore>
-8.32461

> <r_i_glide_lipo>
-1.16504

> <r_i_glide_hbond>
-1.21166

> <r_i_glide_metal>
-0

> <r_i_glide_rewards>
-0.885161

> <r_i_glide_evdw>
-33.4331

> <r_i_glide_ecoul>
-29.7031

> <r_i_glide_erotb>
0.703828

> <r_i_glide_esite>
-0.0949188

> <r_i_glide_emodel>
-128.491

> <r_i_glide_energy>
-63.1362

> <r_i_glide_einternal>
5.15882e-09

> <i_i_glide_confnum>
1

> <i_i_glide_posenum>
1

> <r_i_glide_eff_state_penalty>
-0

> <r_i_glide_rmsd>
0.0816129

> <s_glide_core_constrain_type>
snapped_core_restrain
$$$$