lig_8a
                    3D
 Schrodinger Suite 2021-1.
 45 48  0  0  1  0            999 V2000
  -41.1892  -15.3440   15.9337 H   0  0  0  0  0  0
  -40.5469  -14.5358   15.6107 C   0  0  0  0  0  0
  -40.4217  -14.2360   14.2454 C   0  0  0  0  0  0
  -40.9623  -14.8188   13.5137 H   0  0  0  0  0  0
  -39.6182  -13.1554   13.8386 C   0  0  0  0  0  0
  -38.9147  -12.3925   14.8015 C   0  0  0  0  0  0
  -39.0365  -12.6959   16.1759 C   0  0  0  0  0  0
  -38.5244  -12.1048   16.9214 H   0  0  0  0  0  0
  -39.8696  -13.7625   16.5704 C   0  0  0  0  0  0
  -40.0979  -14.0557   17.8672 F   0  0  0  0  0  0
  -38.0659  -11.2621   14.3016 C   0  0  0  0  0  0
  -37.3333  -10.6017   15.0350 O   0  0  0  0  0  0
  -38.1521  -11.0303   12.9827 N   0  0  0  0  0  0
  -37.5671  -10.2877   12.6220 H   0  0  0  0  0  0
  -38.8685  -11.8136   12.0687 C   0  0  0  0  0  0
  -38.8070  -11.4949   10.6121 C   0  0  0  0  0  0
  -39.3586  -12.4032    9.6842 C   0  0  0  0  0  0
  -39.8113  -13.3296   10.0059 H   0  0  0  0  0  0
  -39.3189  -12.1258    8.3126 C   0  0  0  0  0  0
  -39.7382  -12.8436    7.6230 H   0  0  0  0  0  0
  -38.7026  -10.9531    7.8407 C   0  0  0  0  0  0
  -38.6291  -10.7675    6.4551 N   0  0  0  0  0  0
  -37.3637  -10.3975    5.8460 C   0  0  0  0  0  0
  -36.5568  -10.7587    6.4798 H   0  0  0  0  0  0
  -37.2809   -9.3119    5.8091 H   0  0  0  0  0  0
  -37.2280  -11.0340    4.4470 C   0  0  0  0  0  0
  -36.3661  -10.6049    3.9333 H   0  0  0  0  0  0
  -37.0313  -12.1024    4.5548 H   0  0  0  0  0  0
  -38.4559  -10.8555    3.6252 N   0  3  0  0  0  0
  -38.3077  -11.3909    2.2544 C   0  0  0  0  0  0
  -38.1704  -12.4731    2.2693 H   0  0  0  0  0  0
  -39.1895  -11.1662    1.6532 H   0  0  0  0  0  0
  -37.4465  -10.9442    1.7557 H   0  0  0  0  0  0
  -39.6792  -11.3512    4.3010 C   0  0  0  0  0  0
  -40.5568  -11.1538    3.6839 H   0  0  0  0  0  0
  -39.6067  -12.4346    4.3960 H   0  0  0  0  0  0
  -39.8586  -10.6891    5.6794 C   0  0  0  0  0  0
  -40.1223   -9.6376    5.5710 H   0  0  0  0  0  0
  -40.6862  -11.1580    6.2077 H   0  0  0  0  0  0
  -38.1478  -10.0302    8.7633 C   0  0  0  0  0  0
  -37.6750   -9.1239    8.4131 H   0  0  0  0  0  0
  -38.1990  -10.3047   10.1439 C   0  0  0  0  0  0
  -37.7590   -9.5917   10.8261 H   0  0  0  0  0  0
  -39.5603  -12.8403   12.4766 N   0  0  0  0  0  0
  -38.5934   -9.8586    3.5331 H   0  0  0  0  0  0
  1  2  1  0  0  0
  2  9  1  0  0  0
  2  3  2  0  0  0
  3  4  1  0  0  0
  3  5  1  0  0  0
  5 44  1  0  0  0
  5  6  2  0  0  0
  6  7  1  0  0  0
  6 11  1  0  0  0
  7  8  1  0  0  0
  7  9  2  0  0  0
  9 10  1  0  0  0
 11 12  2  0  0  0
 11 13  1  0  0  0
 13 14  1  0  0  0
 13 15  1  0  0  0
 15 16  1  0  0  0
 15 44  2  0  0  0
 16 42  1  0  0  0
 16 17  2  0  0  0
 17 18  1  0  0  0
 17 19  1  0  0  0
 19 20  1  0  0  0
 19 21  2  0  0  0
 21 22  1  0  0  0
 21 40  1  0  0  0
 22 37  1  0  0  0
 22 23  1  0  0  0
 23 24  1  0  0  0
 23 25  1  0  0  0
 23 26  1  0  0  0
 26 27  1  0  0  0
 26 28  1  0  0  0
 26 29  1  0  0  0
 29 30  1  0  0  0
 29 34  1  0  0  0
 29 45  1  0  0  0
 30 31  1  0  0  0
 30 32  1  0  0  0
 30 33  1  0  0  0
 34 35  1  0  0  0
 34 36  1  0  0  0
 34 37  1  0  0  0
 37 38  1  0  0  0
 37 39  1  0  0  0
 40 41  1  0  0  0
 40 42  2  0  0  0
 42 43  1  0  0  0
M  CHG  1  29   1
M  END
> <s_m_source_file>
ligprep_tnks2.smi

> <i_m_source_file_index>
22

> <i_lp_mmshare_version>
53161

> <i_f3d_flags>
0

> <s_epik_input>
W2NIXTFbY0hdYyhGKVtjSF1jKGMxMiljKD1PKVtuSF1jKG4yKS1jM1tjSF1bY0hdYyhbY0hdW2NIXTMpTjRbQ0gyXVtDSDJdTihbQ0gzXSlbQ0gyXVtDSDJdNA==

> <s_epik_cmdline>
J2VwaWtfcHl0aG9uJywgJy1waHQnLCAnMC4wJywgJy1waCcsICc3LjQnLCAnLXRuJywgJzgnLCAnLW1hJywgJzUwMCcsICctaW1hZScsICc8aW5maWxlLm1hZT4nLCAnLW9tYWUnLCAnPG91dGZpbGUubWFlPic=

> <r_lp_tautomer_probability>
1

> <r_epik_Ionization_Penalty>
0.2718

> <r_epik_Ionization_Penalty_Charging>
0.2717

> <r_epik_Ionization_Penalty_Neutral>
0.0001

> <r_epik_State_Penalty>
-0

> <r_epik_Charging_Adjusted_Penalty>
0.271696

> <i_epik_Tot_Q>
1

> <i_epik_Tot_abs_Q>
1

> <s_lp_Force_Field>
S-OPLS

> <r_lp_Energy>
54.0294

> <b_lp_Chiralities_Consistent>
1

> <s_lp_Variant>
lig_8a-1

> <s_i_glide_gridfile>
glide-grid_4UI5-TNKS2

> <i_i_glide_lignum>
22

> <i_i_glide_rotatable_bonds>
2

> <r_i_docking_score>
-12.0625

> <r_i_glide_ligand_efficiency>
-0.482499

> <r_i_glide_ligand_efficiency_sa>
-1.41083

> <r_i_glide_ligand_efficiency_ln>
-2.85917

> <r_i_glide_gscore>
-12.0625

> <r_i_glide_lipo>
-4.47072

> <r_i_glide_hbond>
-0.820661

> <r_i_glide_metal>
-0

> <r_i_glide_rewards>
-3.25149

> <r_i_glide_evdw>
-48.4395

> <r_i_glide_ecoul>
-8.84864

> <r_i_glide_erotb>
0.230013

> <r_i_glide_esite>
-0.000335287

> <r_i_glide_emodel>
-89.4279

> <r_i_glide_energy>
-57.2882

> <r_i_glide_einternal>
3.31309

> <i_i_glide_confnum>
4

> <i_i_glide_posenum>
5

> <r_i_glide_eff_state_penalty>
-0

> <r_i_glide_rmsd>
0.092711

> <s_glide_core_constrain_type>
snapped_core_restrain
$$$$