lig_36
                    3D
 Schrodinger Suite 2021-1.
 53 57  0  0  1  0            999 V2000
   -2.2669   14.5925   -7.0120 H   0  0  0  0  0  0
   -1.6511   13.7311   -6.7981 C   0  0  0  0  0  0
   -0.4140   13.9122   -6.3561 N   0  0  0  0  0  0
    0.0715   12.6597   -6.1573 N   0  0  0  0  0  0
    1.3979   12.4704   -5.6041 C   0  0  0  0  0  0
    1.3150   12.0335   -4.6073 H   0  0  0  0  0  0
    1.9700   11.7828   -6.2327 H   0  0  0  0  0  0
    1.9265   13.4246   -5.5320 H   0  0  0  0  0  0
   -0.8459   11.6919   -6.4998 C   0  0  0  0  0  0
   -0.6325   10.6360   -6.3954 H   0  0  0  0  0  0
   -1.9785   12.3477   -6.8822 C   0  0  0  0  0  0
   -3.2794   11.7501   -7.2307 C   0  0  0  0  0  0
   -3.3673   10.4718   -7.8322 C   0  0  0  0  0  0
   -2.4665    9.9320   -8.0846 H   0  0  0  0  0  0
   -4.6199    9.8814   -8.0902 C   0  0  0  0  0  0
   -4.6668    8.9006   -8.5412 H   0  0  0  0  0  0
   -5.8071   10.5525   -7.7357 C   0  0  0  0  0  0
   -7.1584    9.8968   -7.9682 C   0  0  0  0  0  0
   -7.9406   10.5005   -7.5085 H   0  0  0  0  0  0
   -7.1667    8.9446   -7.4324 H   0  0  0  0  0  0
   -7.4759    9.6847   -9.4214 C   0  0  0  0  0  0
   -8.1276    8.6165   -9.8154 N   0  0  0  0  0  0
   -8.3101    8.7528  -11.1545 N   0  0  0  0  0  0
   -8.8165    8.0460  -11.6761 H   0  0  0  0  0  0
   -7.7681    9.9144  -11.6707 C   0  0  0  0  0  0
   -7.1778   10.5376  -10.5397 C   0  0  0  0  0  0
   -6.4905   11.7519  -10.7555 C   0  0  0  0  0  0
   -6.0235   12.2453   -9.9161 H   0  0  0  0  0  0
   -6.3793   12.3219  -12.0445 C   0  0  0  0  0  0
   -5.6146   13.5998  -12.2364 C   0  0  0  0  0  0
   -6.0050   14.4585  -13.0266 O   0  0  0  0  0  0
   -4.4147   13.7368  -11.5360 N   0  0  0  0  0  0
   -3.4376   12.6610  -11.4460 C   0  0  0  0  0  0
   -3.4237   12.0053  -12.3185 H   0  0  0  0  0  0
   -3.4787   12.1087  -10.5061 H   0  0  0  0  0  0
   -2.3617   13.7524  -11.4938 C   0  0  0  0  0  0
   -1.6415   13.5855  -12.2958 H   0  0  0  0  0  0
   -1.7453   13.9720  -10.2342 O   0  0  0  0  0  0
   -0.7292   14.9548  -10.3164 C   0  0  0  0  0  0
   -0.2574   15.0855   -9.3423 H   0  0  0  0  0  0
   -1.1293   15.9151  -10.6377 H   0  0  0  0  0  0
    0.0389   14.6687  -11.0318 H   0  0  0  0  0  0
   -3.4494   14.7820  -11.8346 C   0  0  0  0  0  0
   -3.5162   15.6263  -11.1478 H   0  0  0  0  0  0
   -3.4340   15.1007  -12.8773 H   0  0  0  0  0  0
   -7.0270   11.7038  -13.1369 C   0  0  0  0  0  0
   -6.9768   12.1478  -14.1225 H   0  0  0  0  0  0
   -7.7231   10.4934  -12.9522 C   0  0  0  0  0  0
   -8.2122   10.0147  -13.7868 H   0  0  0  0  0  0
   -5.7292   11.8348   -7.1566 C   0  0  0  0  0  0
   -6.6293   12.3653   -6.8852 H   0  0  0  0  0  0
   -4.4767   12.4287   -6.9157 C   0  0  0  0  0  0
   -4.4383   13.4029   -6.4519 H   0  0  0  0  0  0
  1  2  1  0  0  0
  2 11  1  0  0  0
  2  3  2  0  0  0
  3  4  1  0  0  0
  4  5  1  0  0  0
  4  9  1  0  0  0
  5  6  1  0  0  0
  5  7  1  0  0  0
  5  8  1  0  0  0
  9 10  1  0  0  0
  9 11  2  0  0  0
 11 12  1  0  0  0
 12 52  1  0  0  0
 12 13  2  0  0  0
 13 14  1  0  0  0
 13 15  1  0  0  0
 15 16  1  0  0  0
 15 17  2  0  0  0
 17 18  1  0  0  0
 17 50  1  0  0  0
 18 19  1  0  0  0
 18 20  1  0  0  0
 18 21  1  0  0  0
 21 26  1  0  0  0
 21 22  2  0  0  0
 22 23  1  0  0  0
 23 24  1  0  0  0
 23 25  1  0  0  0
 25 48  1  0  0  0
 25 26  2  0  0  0
 26 27  1  0  0  0
 27 28  1  0  0  0
 27 29  2  0  0  0
 29 30  1  0  0  0
 29 46  1  0  0  0
 30 31  2  0  0  0
 30 32  1  0  0  0
 32 43  1  0  0  0
 32 33  1  0  0  0
 33 34  1  0  0  0
 33 35  1  0  0  0
 33 36  1  0  0  0
 36 37  1  0  0  0
 36 38  1  0  0  0
 36 43  1  0  0  0
 38 39  1  0  0  0
 39 40  1  0  0  0
 39 41  1  0  0  0
 39 42  1  0  0  0
 43 44  1  0  0  0
 43 45  1  0  0  0
 46 47  1  0  0  0
 46 48  2  0  0  0
 48 49  1  0  0  0
 50 51  1  0  0  0
 50 52  2  0  0  0
 52 53  1  0  0  0
M  END
> <s_m_source_file>
ligprep_cdk8.smi

> <i_m_source_file_index>
24

> <i_lp_mmshare_version>
53161

> <i_f3d_flags>
0

> <s_epik_input>
W0NIM11uMW5bY0hdYyhbY0hdMSktYzJbY0hdW2NIXWMoW2NIXVtjSF0yKVtDSDJdYyhuW25IXTMpYyhjMzQpW2NIXWMoW2NIXVtjSF00KUMoPU8pTjVbQ0gyXVtDSF0oW0NIMl01KU9bQ0gzXQ==

> <s_epik_cmdline>
J2VwaWtfcHl0aG9uJywgJy1waHQnLCAnMC4wJywgJy1waCcsICc3LjQnLCAnLXRuJywgJzgnLCAnLW1hJywgJzUwMCcsICctaW1hZScsICc8aW5maWxlLm1hZT4nLCAnLW9tYWUnLCAnPG91dGZpbGUubWFlPic=

> <r_lp_tautomer_probability>
1

> <r_epik_Ionization_Penalty>
0.0001

> <r_epik_Ionization_Penalty_Charging>
0

> <r_epik_Ionization_Penalty_Neutral>
0.0001

> <r_epik_State_Penalty>
-0

> <r_epik_Charging_Adjusted_Penalty>
0

> <i_epik_Tot_Q>
0

> <i_epik_Tot_abs_Q>
0

> <s_lp_Force_Field>
S-OPLS

> <r_lp_Energy>
30.1367

> <b_lp_Chiralities_Consistent>
1

> <s_lp_Variant>
lig_36-1

> <s_i_glide_gridfile>
glide-grid_5HNB-CDK8

> <i_i_glide_lignum>
24

> <i_i_glide_rotatable_bonds>
6

> <r_i_docking_score>
-9.13932

> <r_i_glide_ligand_efficiency>
-0.304644

> <r_i_glide_ligand_efficiency_sa>
-0.946599

> <r_i_glide_ligand_efficiency_ln>
-2.07655

> <r_i_glide_gscore>
-9.13932

> <r_i_glide_lipo>
-4.09047

> <r_i_glide_hbond>
-0.552216

> <r_i_glide_metal>
-0

> <r_i_glide_rewards>
-1.54244

> <r_i_glide_evdw>
-50.7279

> <r_i_glide_ecoul>
-5.62498

> <r_i_glide_erotb>
0.425945

> <r_i_glide_esite>
0

> <r_i_glide_emodel>
-82.7964

> <r_i_glide_energy>
-56.3529

> <r_i_glide_einternal>
3.74618

> <i_i_glide_confnum>
22

> <i_i_glide_posenum>
13

> <r_i_glide_eff_state_penalty>
-0

> <r_i_glide_rmsd>
0.105957

> <s_glide_core_constrain_type>
snapped_core_restrain
$$$$