lig_57
                    3D
 Schrodinger Suite 2021-1.
 38 40  0  0  1  0            999 V2000
   28.3487    2.0110  -11.7117 H   0  0  0  0  0  0
   27.6259    1.6752  -11.1886 O   0  0  0  0  0  0
   27.2420    0.4261  -11.6997 C   0  0  1  0  0  0
   28.0878   -0.2598  -11.7338 H   0  0  0  0  0  0
   26.0983   -0.1038  -10.8863 C   0  0  0  0  0  0
   24.8994    0.0532  -11.5739 C   0  0  0  0  0  0
   23.6713   -0.3258  -11.0118 C   0  0  0  0  0  0
   22.5493   -0.1918  -11.7879 O   0  0  0  0  0  0
   21.3266   -0.4841  -11.2567 C   0  0  0  0  0  0
   20.7560   -1.7535  -11.4565 C   0  0  0  0  0  0
   21.2857   -2.5046  -12.0247 H   0  0  0  0  0  0
   19.4936   -2.0436  -10.9083 C   0  0  0  0  0  0
   18.9336   -3.2538  -11.1055 F   0  0  0  0  0  0
   18.8045   -1.0664  -10.1689 C   0  0  0  0  0  0
   17.8398   -1.3073   -9.7512 H   0  0  0  0  0  0
   19.3658    0.2135   -9.9898 C   0  0  0  0  0  0
   18.6526    1.2509   -9.2675 C   0  0  0  0  0  0
   18.0911    2.0752   -8.6843 N   0  0  0  0  0  0
   20.6335    0.4932  -10.5195 C   0  0  0  0  0  0
   21.0757    1.4644  -10.3601 H   0  0  0  0  0  0
   23.6740   -0.8330   -9.6853 C   0  0  0  0  0  0
   22.7545   -1.1325   -9.1999 H   0  0  0  0  0  0
   24.8869   -0.9796   -8.9769 C   0  0  0  0  0  0
   24.8655   -1.3797   -7.9751 H   0  0  0  0  0  0
   26.1174   -0.6446   -9.5816 C   0  0  0  0  0  0
   27.6336   -0.9212   -8.6496 S   0  0  0  0  0  0
   27.3316   -1.9230   -7.6169 O   0  0  0  0  0  0
   28.7291   -1.2082   -9.5816 O   0  0  0  0  0  0
   28.0171    0.6728   -7.8050 C   0  0  0  0  0  0
   27.6258    0.5856   -6.5322 F   0  0  0  0  0  0
   29.3215    0.8752   -7.8825 F   0  0  0  0  0  0
   27.3696    1.6742   -8.3926 F   0  0  0  0  0  0
   25.1109    0.6514  -12.9380 C   0  0  0  0  0  0
   24.5970    0.0780  -13.7096 H   0  0  0  0  0  0
   24.7335    1.6747  -12.9489 H   0  0  0  0  0  0
   26.6412    0.6224  -13.1103 C   0  0  0  0  0  0
   26.8857   -0.2633  -13.6987 H   0  0  0  0  0  0
   27.0360    1.4806  -13.6558 H   0  0  0  0  0  0
  1  2  1  0  0  0
  2  3  1  0  0  0
  3 36  1  0  0  0
  3  4  1  0  0  0
  3  5  1  0  0  0
  5 25  1  0  0  0
  5  6  2  0  0  0
  6  7  1  0  0  0
  6 33  1  0  0  0
  7  8  1  0  0  0
  7 21  2  0  0  0
  8  9  1  0  0  0
  9 19  1  0  0  0
  9 10  2  0  0  0
 10 11  1  0  0  0
 10 12  1  0  0  0
 12 13  1  0  0  0
 12 14  2  0  0  0
 14 15  1  0  0  0
 14 16  1  0  0  0
 16 17  1  0  0  0
 16 19  2  0  0  0
 17 18  3  0  0  0
 19 20  1  0  0  0
 21 22  1  0  0  0
 21 23  1  0  0  0
 23 24  1  0  0  0
 23 25  2  0  0  0
 25 26  1  0  0  0
 26 27  2  0  0  0
 26 28  2  0  0  0
 26 29  1  0  0  0
 29 30  1  0  0  0
 29 31  1  0  0  0
 29 32  1  0  0  0
 33 34  1  0  0  0
 33 35  1  0  0  0
 33 36  1  0  0  0
 36 37  1  0  0  0
 36 38  1  0  0  0
M  END
> <s_m_source_file>
ligprep_hif2a.smi

> <i_m_source_file_index>
37

> <i_lp_mmshare_version>
53161

> <i_f3d_flags>
0

> <s_epik_input>
RkMoRikoRilTKD1PKSg9TyljMVtjSF1bY0hdYyhjKGMxMilbQ0gyXVtDSDJdW0NASF0yW09IXSlPYzNbY0hdYyhGKVtjSF1jKEMjTilbY0hdMw==

> <s_epik_cmdline>
J2VwaWtfcHl0aG9uJywgJy1waHQnLCAnMC4wJywgJy1waCcsICc3LjQnLCAnLXRuJywgJzgnLCAnLW1hJywgJzUwMCcsICctaW1hZScsICc8aW5maWxlLm1hZT4nLCAnLW9tYWUnLCAnPG91dGZpbGUubWFlPic=

> <r_lp_tautomer_probability>
1

> <r_epik_Ionization_Penalty>
0

> <r_epik_Ionization_Penalty_Charging>
0

> <r_epik_Ionization_Penalty_Neutral>
0

> <r_epik_State_Penalty>
-0

> <r_epik_Charging_Adjusted_Penalty>
0

> <i_epik_Tot_Q>
0

> <i_epik_Tot_abs_Q>
0

> <s_lp_Force_Field>
S-OPLS

> <r_lp_Energy>
36.9505

> <b_lp_Chiralities_Consistent>
1

> <s_lp_Variant>
lig_57-1

> <s_i_glide_gridfile>
glide-grid_5TBM-HIF2a

> <i_i_glide_lignum>
37

> <i_i_glide_rotatable_bonds>
5

> <r_i_docking_score>
-11.4568

> <r_i_glide_ligand_efficiency>
-0.424325

> <r_i_glide_ligand_efficiency_sa>
-1.27298

> <r_i_glide_ligand_efficiency_ln>
-2.66695

> <r_i_glide_gscore>
-11.4568

> <r_i_glide_lipo>
-4.75756

> <r_i_glide_hbond>
0

> <r_i_glide_metal>
-0

> <r_i_glide_rewards>
-3.2094

> <r_i_glide_evdw>
-53.89

> <r_i_glide_ecoul>
-9.36118

> <r_i_glide_erotb>
0.608842

> <r_i_glide_esite>
0

> <r_i_glide_emodel>
-104.987

> <r_i_glide_energy>
-63.2511

> <r_i_glide_einternal>
0.326365

> <i_i_glide_confnum>
2

> <i_i_glide_posenum>
5

> <r_i_glide_eff_state_penalty>
-0

> <r_i_glide_rmsd>
0.0945106

> <s_glide_core_constrain_type>
snapped_core_restrain
$$$$