lig_CHEMBL3264998
                    3D
 Schrodinger Suite 2021-1.
 63 67  0  0  1  0            999 V2000
    6.2818   -0.8069   17.2685 H   0  0  0  0  0  0
    5.6545   -0.5040   16.4458 C   0  0  0  0  0  0
    5.9135    0.4106   15.4663 C   0  0  0  0  0  0
    6.7629    1.0423   15.2526 H   0  0  0  0  0  0
    4.7566    0.5090   14.7220 N   0  0  0  0  0  0
    3.8358   -0.4118   15.2683 C   0  0  0  0  0  0
    4.3896   -1.0580   16.2927 N   0  0  0  0  0  0
    2.5410   -0.4532   14.6728 C   0  0  0  0  0  0
    1.6077   -1.3517   15.2235 N   0  0  0  0  0  0
    2.0000   -1.9189   15.9658 H   0  0  0  0  0  0
    0.2332   -1.5592   15.0151 C   0  0  0  0  0  0
   -0.3648   -2.5940   15.7625 C   0  0  0  0  0  0
    0.2304   -3.1907   16.4390 H   0  0  0  0  0  0
   -1.7409   -2.8598   15.6555 C   0  0  0  0  0  0
   -2.1770   -3.6507   16.2513 H   0  0  0  0  0  0
   -2.5453   -2.0989   14.7879 C   0  0  0  0  0  0
   -3.8863   -2.3742   14.7011 O   0  0  0  0  0  0
   -4.2295   -3.1272   13.5487 C   0  0  0  0  0  0
   -5.3025   -3.3213   13.5473 H   0  0  0  0  0  0
   -3.9846   -2.5995   12.6259 H   0  0  0  0  0  0
   -3.7178   -4.0904   13.5431 H   0  0  0  0  0  0
   -1.9758   -1.0516   14.0322 C   0  0  0  0  0  0
   -2.8255   -0.3170   13.2273 O   0  0  0  0  0  0
   -2.2516    0.6663   12.3797 C   0  0  0  0  0  0
   -3.0277    1.1026   11.7511 H   0  0  0  0  0  0
   -1.8047    1.4693   12.9669 H   0  0  0  0  0  0
   -1.4975    0.2332   11.7209 H   0  0  0  0  0  0
   -0.5845   -0.7966   14.1455 C   0  0  0  0  0  0
   -0.1559    0.0039   13.5740 H   0  0  0  0  0  0
    2.2223    0.3309   13.6832 N   0  0  0  0  0  0
    3.1444    1.2363   13.2051 C   0  0  0  0  0  0
    2.6853    2.1327   12.1256 C   0  0  0  0  0  0
    3.5941    2.6119   11.1530 C   0  0  0  0  0  0
    4.6337    2.3260   11.1928 H   0  0  0  0  0  0
    3.1662    3.4350   10.0993 C   0  0  0  0  0  0
    3.8756    3.7763    9.3586 H   0  0  0  0  0  0
    1.8117    3.7954    9.9985 C   0  0  0  0  0  0
    1.4854    4.4131    9.1745 H   0  0  0  0  0  0
    0.8856    3.3540   10.9662 C   0  0  0  0  0  0
   -0.5678    3.6894   10.8042 C   0  0  0  0  0  0
   -1.0860    3.6392    9.6887 O   0  0  0  0  0  0
   -1.1976    4.0843   11.9259 N   0  0  0  0  0  0
   -0.6009    4.2321   12.7341 H   0  0  0  0  0  0
   -2.5460    4.5054   12.0761 C   0  0  0  0  0  0
   -3.5973    4.0833   11.2285 C   0  0  0  0  0  0
   -3.4215    3.3822   10.4272 H   0  0  0  0  0  0
   -4.9050    4.5712   11.4255 C   0  0  0  0  0  0
   -5.6957    4.2524   10.7626 H   0  0  0  0  0  0
   -5.1881    5.4492   12.4942 C   0  0  0  0  0  0
   -6.6227    5.9199   12.7277 C   0  0  0  0  0  0
   -6.9377    5.6695   13.7383 H   0  0  0  0  0  0
   -7.3064    5.4119   12.0455 H   0  0  0  0  0  0
   -6.7372    7.4353   12.5347 C   0  0  0  0  0  0
   -7.3691    7.8448   11.5377 O   0  0  0  0  0  0
   -6.2371    8.1654   13.4201 O   0  5  0  0  0  0
   -4.1502    5.8197   13.3758 C   0  0  0  0  0  0
   -4.3498    6.4629   14.2212 H   0  0  0  0  0  0
   -2.8362    5.3605   13.1576 C   0  0  0  0  0  0
   -2.0513    5.6536   13.8400 H   0  0  0  0  0  0
    1.3314    2.5361   12.0281 C   0  0  0  0  0  0
    0.6227    2.1871   12.7650 H   0  0  0  0  0  0
    4.4249    1.3240   13.6950 C   0  0  0  0  0  0
    5.1682    2.0406   13.3663 H   0  0  0  0  0  0
  1  2  1  0  0  0
  2  7  1  0  0  0
  2  3  2  0  0  0
  3  4  1  0  0  0
  3  5  1  0  0  0
  5 62  1  0  0  0
  5  6  1  0  0  0
  6  7  2  0  0  0
  6  8  1  0  0  0
  8  9  1  0  0  0
  8 30  2  0  0  0
  9 10  1  0  0  0
  9 11  1  0  0  0
 11 28  1  0  0  0
 11 12  2  0  0  0
 12 13  1  0  0  0
 12 14  1  0  0  0
 14 15  1  0  0  0
 14 16  2  0  0  0
 16 17  1  0  0  0
 16 22  1  0  0  0
 17 18  1  0  0  0
 18 19  1  0  0  0
 18 20  1  0  0  0
 18 21  1  0  0  0
 22 23  1  0  0  0
 22 28  2  0  0  0
 23 24  1  0  0  0
 24 25  1  0  0  0
 24 26  1  0  0  0
 24 27  1  0  0  0
 28 29  1  0  0  0
 30 31  1  0  0  0
 31 32  1  0  0  0
 31 62  2  0  0  0
 32 60  1  0  0  0
 32 33  2  0  0  0
 33 34  1  0  0  0
 33 35  1  0  0  0
 35 36  1  0  0  0
 35 37  2  0  0  0
 37 38  1  0  0  0
 37 39  1  0  0  0
 39 40  1  0  0  0
 39 60  2  0  0  0
 40 41  2  0  0  0
 40 42  1  0  0  0
 42 43  1  0  0  0
 42 44  1  0  0  0
 44 58  1  0  0  0
 44 45  2  0  0  0
 45 46  1  0  0  0
 45 47  1  0  0  0
 47 48  1  0  0  0
 47 49  2  0  0  0
 49 50  1  0  0  0
 49 56  1  0  0  0
 50 51  1  0  0  0
 50 52  1  0  0  0
 50 53  1  0  0  0
 53 54  2  0  0  0
 53 55  1  0  0  0
 56 57  1  0  0  0
 56 58  2  0  0  0
 58 59  1  0  0  0
 60 61  1  0  0  0
 62 63  1  0  0  0
M  CHG  1  55  -1
M  END
> <s_m_source_file>
ligprep_syk.smi

> <i_m_source_file_index>
6

> <i_lp_mmshare_version>
53161

> <i_f3d_flags>
0

> <s_epik_input>
W0NIM11PYyhbY0hdMSljKE9bQ0gzXSlbY0hdW2NIXWMxW05IXWMoYyhuMjMpbltjSF1bY0hdMiluYyhbY0hdMyktYzRbY0hdW2NIXVtjSF1jKFtjSF00KUMoPU8pW05IXWM1W2NIXVtjSF1jKFtjSF1bY0hdNSlbQ0gyXUMoPU8pW09IXQ==

> <s_epik_cmdline>
J2VwaWtfcHl0aG9uJywgJy1waHQnLCAnMC4wJywgJy1waCcsICc3LjQnLCAnLXRuJywgJzgnLCAnLW1hJywgJzUwMCcsICctaW1hZScsICc8aW5maWxlLm1hZT4nLCAnLW9tYWUnLCAnPG91dGZpbGUubWFlPic=

> <r_lp_tautomer_probability>
1

> <r_epik_Ionization_Penalty>
0.0013

> <r_epik_Ionization_Penalty_Charging>
0.0013

> <r_epik_Ionization_Penalty_Neutral>
0

> <r_epik_State_Penalty>
-0

> <r_epik_Charging_Adjusted_Penalty>
0.00128141

> <i_epik_Tot_Q>
-1

> <i_epik_Tot_abs_Q>
1

> <s_lp_Force_Field>
S-OPLS

> <r_lp_Energy>
60.4358

> <b_lp_Chiralities_Consistent>
1

> <s_lp_Variant>
lig_CHEMBL3264998-1

> <s_i_glide_gridfile>
glide-grid_4PV0-SYK

> <i_i_glide_lignum>
6

> <i_i_glide_rotatable_bonds>
10

> <r_i_docking_score>
-9.52026

> <r_i_glide_ligand_efficiency>
-0.244109

> <r_i_glide_ligand_efficiency_sa>
-0.827826

> <r_i_glide_ligand_efficiency_ln>
-2.04141

> <r_i_glide_gscore>
-9.52026

> <r_i_glide_lipo>
-3.05805

> <r_i_glide_hbond>
-0.78812

> <r_i_glide_metal>
-0

> <r_i_glide_rewards>
-1.40512

> <r_i_glide_evdw>
-54.0638

> <r_i_glide_ecoul>
-15.1053

> <r_i_glide_erotb>
0.753169

> <r_i_glide_esite>
-0.0531513

> <r_i_glide_emodel>
-113.687

> <r_i_glide_energy>
-69.1692

> <r_i_glide_einternal>
0.687232

> <i_i_glide_confnum>
10

> <i_i_glide_posenum>
5

> <r_i_glide_eff_state_penalty>
-0

> <r_i_glide_rmsd>
0.0625746

> <s_glide_core_constrain_type>
snapped_core_restrain
$$$$