lig_0340
                    3D
 Schrodinger Suite 2021-1.
 50 53  0  0  1  0            999 V2000
  -16.6799  -10.6715   37.3259 H   0  0  0  0  0  0
  -17.4186  -10.6893   38.1137 C   0  0  0  0  0  0
  -17.1652  -10.0449   39.2379 N   0  0  0  0  0  0
  -18.2292  -10.3026   40.0332 N   0  0  0  0  0  0
  -18.2737   -9.7560   41.3795 C   0  0  0  0  0  0
  -19.2523   -9.9830   41.8033 H   0  0  0  0  0  0
  -18.2042   -8.6695   41.3177 H   0  0  0  0  0  0
  -17.1745  -10.3124   42.3045 C   0  0  0  0  0  0
  -17.1763  -11.4034   42.2755 H   0  0  0  0  0  0
  -17.3905  -10.0173   43.3323 H   0  0  0  0  0  0
  -15.8975   -9.8106   41.9347 O   0  0  0  0  0  0
  -14.8623  -10.2552   42.7954 C   0  0  0  0  0  0
  -13.9034   -9.8674   42.4503 H   0  0  0  0  0  0
  -14.7990  -11.3438   42.8113 H   0  0  0  0  0  0
  -15.0192   -9.9015   43.8149 H   0  0  0  0  0  0
  -19.1822  -11.0683   39.3871 C   0  0  0  0  0  0
  -20.1037  -11.3552   39.8703 H   0  0  0  0  0  0
  -18.6856  -11.3368   38.1439 C   0  0  0  0  0  0
  -19.2636  -12.1681   37.0857 C   0  0  0  0  0  0
  -19.9974  -13.3273   37.1226 C   0  0  0  0  0  0
  -20.6086  -14.0392   38.2890 C   0  0  0  0  0  0
  -20.6262  -13.4038   39.1710 H   0  0  0  0  0  0
  -21.6522  -14.2676   38.0725 H   0  0  0  0  0  0
  -19.8852  -15.3343   38.6273 C   0  0  0  0  0  0
  -20.3665  -15.8151   39.4766 H   0  0  0  0  0  0
  -19.8873  -16.0238   37.7823 H   0  0  0  0  0  0
  -18.8512  -15.1429   38.8980 H   0  0  0  0  0  0
  -20.1570  -13.8516   35.8503 N   0  0  0  0  0  0
  -19.6353  -12.9607   35.0058 C   0  0  0  0  0  0
  -19.4965  -12.9035   33.5764 C   0  0  0  0  0  0
  -19.8862  -13.9785   32.7428 N   0  0  0  0  0  0
  -21.1849  -14.6169   32.9540 C   0  0  0  0  0  0
  -21.4753  -14.6772   33.9983 H   0  0  0  0  0  0
  -21.9438  -14.0056   32.4645 H   0  0  0  0  0  0
  -21.2039  -16.0302   32.3492 C   0  0  0  0  0  0
  -22.2102  -16.4455   32.4067 H   0  0  0  0  0  0
  -20.5554  -16.7055   32.9089 H   0  0  0  0  0  0
  -20.7982  -15.9852   30.9826 O   0  0  0  0  0  0
  -19.4711  -15.4880   30.8389 C   0  0  0  0  0  0
  -19.1877  -15.5177   29.7868 H   0  0  0  0  0  0
  -18.7679  -16.1307   31.3716 H   0  0  0  0  0  0
  -19.4017  -14.0435   31.3630 C   0  0  0  0  0  0
  -20.0068  -13.3853   30.7379 H   0  0  0  0  0  0
  -18.3694  -13.6966   31.2991 H   0  0  0  0  0  0
  -18.9710  -11.8614   32.9903 N   0  0  0  0  0  0
  -18.5458  -10.8064   33.7424 C   0  0  0  0  0  0
  -18.1387   -9.9704   33.1823 H   0  0  0  0  0  0
  -18.5813  -10.7781   35.1064 C   0  0  0  0  0  0
  -18.2355   -9.9418   35.7020 H   0  0  0  0  0  0
  -19.1101  -11.8630   35.7374 N   0  0  0  0  0  0
  1  2  1  0  0  0
  2 18  1  0  0  0
  2  3  2  0  0  0
  3  4  1  0  0  0
  4  5  1  0  0  0
  4 16  1  0  0  0
  5  6  1  0  0  0
  5  7  1  0  0  0
  5  8  1  0  0  0
  8  9  1  0  0  0
  8 10  1  0  0  0
  8 11  1  0  0  0
 11 12  1  0  0  0
 12 13  1  0  0  0
 12 14  1  0  0  0
 12 15  1  0  0  0
 16 17  1  0  0  0
 16 18  2  0  0  0
 18 19  1  0  0  0
 19 50  1  0  0  0
 19 20  2  0  0  0
 20 21  1  0  0  0
 20 28  1  0  0  0
 21 22  1  0  0  0
 21 23  1  0  0  0
 21 24  1  0  0  0
 24 25  1  0  0  0
 24 26  1  0  0  0
 24 27  1  0  0  0
 28 29  2  0  0  0
 29 50  1  0  0  0
 29 30  1  0  0  0
 30 31  1  0  0  0
 30 45  2  0  0  0
 31 42  1  0  0  0
 31 32  1  0  0  0
 32 33  1  0  0  0
 32 34  1  0  0  0
 32 35  1  0  0  0
 35 36  1  0  0  0
 35 37  1  0  0  0
 35 38  1  0  0  0
 38 39  1  0  0  0
 39 40  1  0  0  0
 39 41  1  0  0  0
 39 42  1  0  0  0
 42 43  1  0  0  0
 42 44  1  0  0  0
 45 46  1  0  0  0
 46 47  1  0  0  0
 46 48  2  0  0  0
 48 49  1  0  0  0
 48 50  1  0  0  0
M  END
> <s_m_source_file>
ligprep_pde10.smi

> <i_m_source_file_index>
2

> <i_lp_mmshare_version>
53161

> <i_f3d_flags>
0

> <s_epik_input>
W0NIM11PW0NIMl1bQ0gyXW4xbltjSF1jKFtjSF0xKS1jKGMobjIpW0NIMl1bQ0gzXSluKGMyMylbY0hdW2NIXW5jM040W0NIMl1bQ0gyXU9bQ0gyXVtDSDJdNA==

> <s_epik_cmdline>
J2VwaWtfcHl0aG9uJywgJy1waHQnLCAnMC4wJywgJy1waCcsICc3LjQnLCAnLXRuJywgJzgnLCAnLW1hJywgJzUwMCcsICctaW1hZScsICc8aW5maWxlLm1hZT4nLCAnLW9tYWUnLCAnPG91dGZpbGUubWFlPic=

> <r_lp_tautomer_probability>
1

> <r_epik_Ionization_Penalty>
0.0004

> <r_epik_Ionization_Penalty_Charging>
0.0003

> <r_epik_Ionization_Penalty_Neutral>
0.0001

> <r_epik_State_Penalty>
-0

> <r_epik_Charging_Adjusted_Penalty>
0.000349532

> <i_epik_Tot_Q>
0

> <i_epik_Tot_abs_Q>
0

> <s_lp_Force_Field>
S-OPLS

> <r_lp_Energy>
26.8778

> <b_lp_Chiralities_Consistent>
1

> <s_lp_Variant>
lig_0340-1

> <s_i_glide_gridfile>
glide-grid_4BBX-PDE10

> <i_i_glide_lignum>
2

> <i_i_glide_rotatable_bonds>
6

> <r_i_docking_score>
-7.53488

> <r_i_glide_ligand_efficiency>
-0.289803

> <r_i_glide_ligand_efficiency_sa>
-0.858541

> <r_i_glide_ligand_efficiency_ln>
-1.76954

> <r_i_glide_gscore>
-7.53488

> <r_i_glide_lipo>
-3.15331

> <r_i_glide_hbond>
-0.281185

> <r_i_glide_metal>
-0

> <r_i_glide_rewards>
-2.27057

> <r_i_glide_evdw>
-37.1445

> <r_i_glide_ecoul>
-4.83738

> <r_i_glide_erotb>
0.753017

> <r_i_glide_esite>
0

> <r_i_glide_emodel>
-54.7636

> <r_i_glide_energy>
-41.9819

> <r_i_glide_einternal>
0.728704

> <i_i_glide_confnum>
8

> <i_i_glide_posenum>
132

> <r_i_glide_eff_state_penalty>
-0

> <r_i_glide_rmsd>
0.109098

> <s_glide_core_constrain_type>
snapped_core_restrain
$$$$