lig_42
                    3D
 Schrodinger Suite 2021-1.
 49 53  0  0  1  0            999 V2000
   -0.8369   12.8675  -12.3247 H   0  0  0  0  0  0
   -1.7174   12.5222  -12.2323 O   0  0  0  0  0  0
   -2.2481   12.9854  -11.0148 C   0  0  2  0  0  0
   -1.6789   12.5633  -10.1858 H   0  0  0  0  0  0
   -3.7110   12.5731  -10.9694 C   0  0  0  0  0  0
   -3.8774   11.6090  -11.4543 H   0  0  0  0  0  0
   -4.0139   12.4844   -9.9272 H   0  0  0  0  0  0
   -4.4564   13.6798  -11.5793 N   0  0  0  0  0  0
   -5.6408   13.5744  -12.2251 C   0  0  0  0  0  0
   -6.0588   14.4541  -12.9820 O   0  0  0  0  0  0
   -6.4550   12.3233  -12.0087 C   0  0  0  0  0  0
   -6.6270   11.7860  -10.7090 C   0  0  0  0  0  0
   -6.2084   12.2924   -9.8534 H   0  0  0  0  0  0
   -7.2800   10.5522  -10.5030 C   0  0  0  0  0  0
   -7.8386    9.9093  -11.6390 C   0  0  0  0  0  0
   -7.7824   10.4819  -12.9244 C   0  0  0  0  0  0
   -8.2457    9.9943  -13.7699 H   0  0  0  0  0  0
   -7.0768   11.6877  -13.1066 C   0  0  0  0  0  0
   -6.9922   12.1122  -14.0978 H   0  0  0  0  0  0
   -8.3582    8.7358  -11.1214 N   0  0  0  0  0  0
   -8.8600    8.0195  -11.6378 H   0  0  0  0  0  0
   -8.1458    8.5917   -9.7870 N   0  0  0  0  0  0
   -7.5519    9.6911   -9.3857 C   0  0  0  0  0  0
   -7.2374    9.9256   -7.9328 C   0  0  0  0  0  0
   -8.0004   10.5691   -7.4954 H   0  0  0  0  0  0
   -7.2875    8.9918   -7.3716 H   0  0  0  0  0  0
   -5.8676   10.5421   -7.6983 C   0  0  0  0  0  0
   -5.7485   11.8119   -7.0892 C   0  0  0  0  0  0
   -6.6356   12.3565   -6.7984 H   0  0  0  0  0  0
   -4.4768   12.3961   -6.8721 C   0  0  0  0  0  0
   -3.3287   11.6570   -7.2688 C   0  0  0  0  0  0
   -3.4336   10.3870   -7.8597 C   0  0  0  0  0  0
   -2.5406    9.8530   -8.1527 H   0  0  0  0  0  0
   -4.7082    9.8353   -8.0906 C   0  0  0  0  0  0
   -4.7930    8.8654   -8.5641 H   0  0  0  0  0  0
   -2.2612   12.4792   -6.9386 N   0  0  0  0  0  0
   -0.8433   12.2348   -7.1266 C   0  0  0  0  0  0
   -0.6482   11.1608   -7.1284 H   0  0  0  0  0  0
   -0.5240   12.6551   -8.0812 H   0  0  0  0  0  0
   -0.2697   12.6957   -6.3203 H   0  0  0  0  0  0
   -2.6529   13.6548   -6.3763 N   0  0  0  0  0  0
   -3.9640   13.6140   -6.3259 C   0  0  0  0  0  0
   -4.5118   14.4445   -5.9025 H   0  0  0  0  0  0
   -3.6076   14.8712  -11.6639 C   0  0  0  0  0  0
   -4.0709   15.7296  -11.1766 H   0  0  0  0  0  0
   -3.4366   15.1328  -12.7089 H   0  0  0  0  0  0
   -2.2843   14.5070  -10.9847 C   0  0  0  0  0  0
   -2.3041   14.8421   -9.9453 H   0  0  0  0  0  0
   -1.4211   14.9751  -11.4623 H   0  0  0  0  0  0
  1  2  1  0  0  0
  2  3  1  0  0  0
  3 47  1  0  0  0
  3  4  1  0  0  0
  3  5  1  0  0  0
  5  6  1  0  0  0
  5  7  1  0  0  0
  5  8  1  0  0  0
  8  9  1  0  0  0
  8 44  1  0  0  0
  9 10  2  0  0  0
  9 11  1  0  0  0
 11 18  1  0  0  0
 11 12  2  0  0  0
 12 13  1  0  0  0
 12 14  1  0  0  0
 14 23  1  0  0  0
 14 15  2  0  0  0
 15 16  1  0  0  0
 15 20  1  0  0  0
 16 17  1  0  0  0
 16 18  2  0  0  0
 18 19  1  0  0  0
 20 21  1  0  0  0
 20 22  1  0  0  0
 22 23  2  0  0  0
 23 24  1  0  0  0
 24 25  1  0  0  0
 24 26  1  0  0  0
 24 27  1  0  0  0
 27 34  1  0  0  0
 27 28  2  0  0  0
 28 29  1  0  0  0
 28 30  1  0  0  0
 30 42  1  0  0  0
 30 31  2  0  0  0
 31 32  1  0  0  0
 31 36  1  0  0  0
 32 33  1  0  0  0
 32 34  2  0  0  0
 34 35  1  0  0  0
 36 37  1  0  0  0
 36 41  1  0  0  0
 37 38  1  0  0  0
 37 39  1  0  0  0
 37 40  1  0  0  0
 41 42  2  0  0  0
 42 43  1  0  0  0
 44 45  1  0  0  0
 44 46  1  0  0  0
 44 47  1  0  0  0
 47 48  1  0  0  0
 47 49  1  0  0  0
M  END
> <s_m_source_file>
ligprep_cdk8.smi

> <i_m_source_file_index>
30

> <i_lp_mmshare_version>
53161

> <i_f3d_flags>
0

> <s_epik_input>
W09IXVtDQEBIXTFbQ0gyXU4oW0NIMl1bQ0gyXTEpQyg9TyljKFtjSF0yKVtjSF1bY0hdYyhjMjMpW25IXW5jM1tDSDJdYyhbY0hdNClbY0hdW2NIXWMoYzQ1KW4oW0NIM10pbltjSF01

> <s_epik_cmdline>
J2VwaWtfcHl0aG9uJywgJy1waHQnLCAnMC4wJywgJy1waCcsICc3LjQnLCAnLXRuJywgJzgnLCAnLW1hJywgJzUwMCcsICctaW1hZScsICc8aW5maWxlLm1hZT4nLCAnLW9tYWUnLCAnPG91dGZpbGUubWFlPic=

> <r_lp_tautomer_probability>
1

> <r_epik_Ionization_Penalty>
0

> <r_epik_Ionization_Penalty_Charging>
0

> <r_epik_Ionization_Penalty_Neutral>
0

> <r_epik_State_Penalty>
-0

> <r_epik_Charging_Adjusted_Penalty>
0

> <i_epik_Tot_Q>
0

> <i_epik_Tot_abs_Q>
0

> <s_lp_Force_Field>
S-OPLS

> <r_lp_Energy>
36.5717

> <b_lp_Chiralities_Consistent>
1

> <s_lp_Variant>
lig_42-1

> <s_i_glide_gridfile>
glide-grid_5HNB-CDK8

> <i_i_glide_lignum>
30

> <i_i_glide_rotatable_bonds>
5

> <r_i_docking_score>
-10.528

> <r_i_glide_ligand_efficiency>
-0.376001

> <r_i_glide_ligand_efficiency_sa>
-1.14176

> <r_i_glide_ligand_efficiency_ln>
-2.43018

> <r_i_glide_gscore>
-10.528

> <r_i_glide_lipo>
-4.04038

> <r_i_glide_hbond>
-0.808048

> <r_i_glide_metal>
-0

> <r_i_glide_rewards>
-2.48523

> <r_i_glide_evdw>
-48.898

> <r_i_glide_ecoul>
-8.19936

> <r_i_glide_erotb>
0.480432

> <r_i_glide_esite>
0

> <r_i_glide_emodel>
-94.2681

> <r_i_glide_energy>
-57.0974

> <r_i_glide_einternal>
0.313453

> <i_i_glide_confnum>
8

> <i_i_glide_posenum>
1

> <r_i_glide_eff_state_penalty>
-0

> <r_i_glide_rmsd>
0.053636

> <s_glide_core_constrain_type>
snapped_core_restrain
$$$$