lig_E14
                    3D
 Schrodinger Suite 2021-1.
 40 42  0  0  1  0            999 V2000
   22.2126   42.9400    2.6574 H   0  0  0  0  0  0
   22.1912   42.1234    3.3644 C   0  0  0  0  0  0
   21.0161   41.9190    4.0057 N   0  0  0  0  0  0
   20.9636   40.8829    4.8813 C   0  0  0  0  0  0
   19.6542   40.6131    5.4955 C   0  0  0  0  0  0
   18.6279   40.0663    4.6949 C   0  0  0  0  0  0
   18.8115   39.8739    3.6468 H   0  0  0  0  0  0
   17.3747   39.7437    5.2429 C   0  0  0  0  0  0
   16.6096   39.3117    4.6147 H   0  0  0  0  0  0
   17.1328   39.9594    6.6099 C   0  0  0  0  0  0
   16.1777   39.6998    7.0439 H   0  0  0  0  0  0
   18.1424   40.5026    7.4212 C   0  0  0  0  0  0
   17.8320   40.7622    9.0960 Cl  0  0  0  0  0  0
   19.3942   40.8410    6.8693 C   0  0  0  0  0  0
   20.5869   41.5569    7.8959 Cl  0  0  0  0  0  0
   22.1017   40.0711    5.1192 C   0  0  0  0  0  0
   22.0826   38.9890    5.9965 N   0  0  0  0  0  0
   21.2801   38.7875    6.5728 H   0  0  0  0  0  0
   22.9368   38.4882    6.2195 H   0  0  0  0  0  0
   23.2612   40.2794    4.4702 N   0  0  0  0  0  0
   23.3160   41.2884    3.5706 C   0  0  0  0  0  0
   24.5139   41.4429    2.8485 N   0  0  0  0  0  0
   24.8505   42.6400    2.0948 C   0  0  0  0  0  0
   24.7934   43.5141    2.7473 H   0  0  0  0  0  0
   24.1763   42.7946    1.2525 H   0  0  0  0  0  0
   26.2871   42.4014    1.6187 C   0  0  0  0  0  0
   26.8422   43.3269    1.4714 H   0  0  0  0  0  0
   26.2622   41.8884    0.6586 H   0  0  0  0  0  0
   26.8949   41.4669    2.6774 C   0  0  1  0  0  0
   27.6464   40.8135    2.2340 H   0  0  0  0  0  0
   27.5299   42.2205    3.8624 C   0  0  0  0  0  0
   27.6601   41.5423    4.7053 H   0  0  0  0  0  0
   26.8805   43.0257    4.2121 H   0  0  0  0  0  0
   28.8490   42.7689    3.5118 N   0  3  0  0  0  0
   29.2406   43.2297    4.3215 H   0  0  0  0  0  0
   28.7435   43.4440    2.7692 H   0  0  0  0  0  0
   25.6912   40.6330    3.1295 C   0  0  0  0  0  0
   25.6203   39.7137    2.5449 H   0  0  0  0  0  0
   25.7688   40.3491    4.1790 H   0  0  0  0  0  0
   29.4930   42.0354    3.2070 H   0  0  0  0  0  0
  1  2  1  0  0  0
  2 21  1  0  0  0
  2  3  2  0  0  0
  3  4  1  0  0  0
  4  5  1  0  0  0
  4 16  2  0  0  0
  5 14  1  0  0  0
  5  6  2  0  0  0
  6  7  1  0  0  0
  6  8  1  0  0  0
  8  9  1  0  0  0
  8 10  2  0  0  0
 10 11  1  0  0  0
 10 12  1  0  0  0
 12 13  1  0  0  0
 12 14  2  0  0  0
 14 15  1  0  0  0
 16 17  1  0  0  0
 16 20  1  0  0  0
 17 18  1  0  0  0
 17 19  1  0  0  0
 20 21  2  0  0  0
 21 22  1  0  0  0
 22 37  1  0  0  0
 22 23  1  0  0  0
 23 24  1  0  0  0
 23 25  1  0  0  0
 23 26  1  0  0  0
 26 27  1  0  0  0
 26 28  1  0  0  0
 26 29  1  0  0  0
 29 30  1  0  0  0
 29 31  1  0  0  0
 29 37  1  0  0  0
 31 32  1  0  0  0
 31 33  1  0  0  0
 31 34  1  0  0  0
 34 35  1  0  0  0
 34 36  1  0  0  0
 34 40  1  0  0  0
 37 38  1  0  0  0
 37 39  1  0  0  0
M  CHG  1  34   1
M  END
> <s_m_source_file>
ligprep_shp2.smi

> <i_m_source_file_index>
8

> <i_lp_mmshare_version>
53161

> <i_f3d_flags>
0

> <s_epik_input>
W05IMl1bQ0gyXVtDQEBIXShbQ0gyXTEpW0NIMl1bQ0gyXU4xYyhuYzJbTkgyXSlbY0hdbmMyLWMzW2NIXVtjSF1bY0hdYyhDbCljM0Ns

> <s_epik_cmdline>
J2VwaWtfcHl0aG9uJywgJy1waHQnLCAnMC4wJywgJy1waCcsICc3LjQnLCAnLXRuJywgJzgnLCAnLW1hJywgJzUwMCcsICctaW1hZScsICc8aW5maWxlLm1hZT4nLCAnLW9tYWUnLCAnPG91dGZpbGUubWFlPic=

> <r_lp_tautomer_probability>
1

> <r_epik_Ionization_Penalty>
0.0014

> <r_epik_Ionization_Penalty_Charging>
0.0012

> <r_epik_Ionization_Penalty_Neutral>
0.0002

> <r_epik_State_Penalty>
-0

> <r_epik_Charging_Adjusted_Penalty>
0.00115725

> <i_epik_Tot_Q>
1

> <i_epik_Tot_abs_Q>
1

> <s_lp_Force_Field>
S-OPLS

> <r_lp_Energy>
22.0181

> <b_lp_Chiralities_Consistent>
1

> <s_lp_Variant>
lig_E14-1

> <s_i_glide_gridfile>
glide-grid_5EHR-SHP2

> <i_i_glide_lignum>
8

> <i_i_glide_rotatable_bonds>
3

> <r_i_docking_score>
-9.31958

> <r_i_glide_ligand_efficiency>
-0.423617

> <r_i_glide_ligand_efficiency_sa>
-1.18699

> <r_i_glide_ligand_efficiency_ln>
-2.27805

> <r_i_glide_gscore>
-9.31958

> <r_i_glide_lipo>
-3.28169

> <r_i_glide_hbond>
-0.62883

> <r_i_glide_metal>
-0

> <r_i_glide_rewards>
-1.37242

> <r_i_glide_evdw>
-47.5554

> <r_i_glide_ecoul>
-13.0712

> <r_i_glide_erotb>
0.328838

> <r_i_glide_esite>
-0.0270313

> <r_i_glide_emodel>
-101.111

> <r_i_glide_energy>
-60.6267

> <r_i_glide_einternal>
0.595516

> <i_i_glide_confnum>
3

> <i_i_glide_posenum>
1

> <r_i_glide_eff_state_penalty>
-0

> <r_i_glide_rmsd>
0.0946257

> <s_glide_core_constrain_type>
snapped_core_restrain
$$$$