lig_CHEMBL1085895
                    3D
 Schrodinger Suite 2021-1.
 61 64  0  0  1  0            999 V2000
   28.8531    8.3674   24.2969 H   0  0  0  0  0  0
   28.2711    8.5857   25.0127 O   0  0  0  0  0  0
   27.4118    9.6536   24.6550 C   0  0  0  0  0  0
   26.6495    9.7354   25.4307 H   0  0  0  0  0  0
   27.9678   10.5919   24.6593 H   0  0  0  0  0  0
   26.7308    9.4417   23.2915 C   0  0  0  0  0  0
   26.2763    8.4503   23.2528 H   0  0  0  0  0  0
   25.9109   10.1582   23.2016 H   0  0  0  0  0  0
   27.6894    9.6406   22.1088 C   0  0  0  0  0  0
   28.1753   10.6163   22.1873 H   0  0  0  0  0  0
   28.4825    8.8951   22.1579 H   0  0  0  0  0  0
   27.0066    9.4975   20.8231 N   0  0  0  0  0  0
   26.7625    8.5627   20.5344 H   0  0  0  0  0  0
   26.7038   10.5102   19.9978 C   0  0  0  0  0  0
   26.9037   11.6947   20.2642 O   0  0  0  0  0  0
   26.2093   10.0924   18.8243 N   0  0  0  0  0  0
   26.0719    9.1049   18.6679 H   0  0  0  0  0  0
   25.9286   10.9725   17.6879 C   0  0  0  0  0  0
   25.0969   10.5423   17.1278 H   0  0  0  0  0  0
   25.5582   11.9333   18.0527 H   0  0  0  0  0  0
   27.1347   11.1993   16.7367 C   0  0  2  0  0  0
   27.1683   12.2654   16.5042 H   0  0  0  0  0  0
   26.8731   10.4965   15.5243 O   0  0  0  0  0  0
   27.7950   10.7844   14.4727 C   0  0  2  0  0  0
   27.8011   11.8629   14.3052 H   0  0  0  0  0  0
   27.3617   10.1278   13.1739 C   0  0  0  0  0  0
   26.3896   10.7592   12.3741 C   0  0  0  0  0  0
   25.9691   11.6999   12.6976 H   0  0  0  0  0  0
   26.0087   10.2055   11.1357 C   0  0  0  0  0  0
   25.0323   10.9338   10.2323 C   0  0  0  0  0  0
   24.3309   10.0580    9.5185 F   0  0  0  0  0  0
   24.1899   11.6976   10.9289 F   0  0  0  0  0  0
   25.7240   11.7126    9.4023 F   0  0  0  0  0  0
   26.5938    8.9941   10.7117 C   0  0  0  0  0  0
   26.3143    8.5641    9.7622 H   0  0  0  0  0  0
   27.5686    8.3625   11.5018 C   0  0  0  0  0  0
   28.0216    7.4482   11.1455 H   0  0  0  0  0  0
   27.9647    8.9258   12.7297 C   0  0  0  0  0  0
   28.9804    8.2880   13.4557 N   0  0  0  0  0  0
   29.1253    7.2975   13.3038 H   0  0  0  0  0  0
   29.3207    8.7815   14.7823 C   0  0  1  0  0  0
   28.5905    8.3426   15.4641 H   0  0  0  0  0  0
   30.6991    8.2799   15.1741 C   0  0  0  0  0  0
   31.8326    8.6962   14.4432 C   0  0  0  0  0  0
   31.7191    9.3629   13.5967 H   0  0  0  0  0  0
   33.1144    8.2440   14.7998 C   0  0  0  0  0  0
   33.9702    8.5701   14.2317 H   0  0  0  0  0  0
   33.2724    7.3761   15.8970 C   0  0  0  0  0  0
   34.2612    7.0275   16.1720 H   0  0  0  0  0  0
   32.1423    6.9458   16.6163 C   0  0  0  0  0  0
   32.2614    6.2633   17.4448 H   0  0  0  0  0  0
   30.8545    7.3787   16.2480 C   0  0  0  0  0  0
   29.9878    7.0249   16.7906 H   0  0  0  0  0  0
   29.2135   10.3281   14.8640 C   0  0  2  0  0  0
   29.8985   10.7364   14.1201 H   0  0  0  0  0  0
   29.6137   10.9489   16.2201 C   0  0  0  0  0  0
   30.5442   10.5269   16.5967 H   0  0  0  0  0  0
   29.8002   12.0154   16.0803 H   0  0  0  0  0  0
   28.5186   10.7643   17.2719 C   0  0  0  0  0  0
   28.7796   11.3394   18.1620 H   0  0  0  0  0  0
   28.4971    9.7157   17.5674 H   0  0  0  0  0  0
  1  2  1  0  0  0
  2  3  1  0  0  0
  3  4  1  0  0  0
  3  5  1  0  0  0
  3  6  1  0  0  0
  6  7  1  0  0  0
  6  8  1  0  0  0
  6  9  1  0  0  0
  9 10  1  0  0  0
  9 11  1  0  0  0
  9 12  1  0  0  0
 12 13  1  0  0  0
 12 14  1  0  0  0
 14 15  2  0  0  0
 14 16  1  0  0  0
 16 17  1  0  0  0
 16 18  1  0  0  0
 18 19  1  0  0  0
 18 20  1  0  0  0
 18 21  1  0  0  0
 21 59  1  0  0  0
 21 22  1  0  0  0
 21 23  1  0  0  0
 23 24  1  0  0  0
 24 54  1  0  0  0
 24 25  1  0  0  0
 24 26  1  0  0  0
 26 38  1  0  0  0
 26 27  2  0  0  0
 27 28  1  0  0  0
 27 29  1  0  0  0
 29 30  1  0  0  0
 29 34  2  0  0  0
 30 31  1  0  0  0
 30 32  1  0  0  0
 30 33  1  0  0  0
 34 35  1  0  0  0
 34 36  1  0  0  0
 36 37  1  0  0  0
 36 38  2  0  0  0
 38 39  1  0  0  0
 39 40  1  0  0  0
 39 41  1  0  0  0
 41 42  1  0  0  0
 41 43  1  0  0  0
 41 54  1  0  0  0
 43 52  1  0  0  0
 43 44  2  0  0  0
 44 45  1  0  0  0
 44 46  1  0  0  0
 46 47  1  0  0  0
 46 48  2  0  0  0
 48 49  1  0  0  0
 48 50  1  0  0  0
 50 51  1  0  0  0
 50 52  2  0  0  0
 52 53  1  0  0  0
 54 55  1  0  0  0
 54 56  1  0  0  0
 56 57  1  0  0  0
 56 58  1  0  0  0
 56 59  1  0  0  0
 59 60  1  0  0  0
 59 61  1  0  0  0
M  END
> <s_m_source_file>
ligprep_eg5.smi

> <i_m_source_file_index>
19

> <i_lp_mmshare_version>
53161

> <i_f3d_flags>
0

> <s_epik_input>
W09IXVtDSDJdW0NIMl1bQ0gyXVtOSF1DKD1PKVtOSF1bQ0gyXVtDQEhdKE8xKVtDSDJdW0NIMl1bQ0BIXTJbQ0BASF0oW05IXWMoYzNbQ0BASF0xMilbY0hdW2NIXWMoW2NIXTMpQyhGKShGKUYpYzRbY0hdW2NIXVtjSF1bY0hdW2NIXTQ=

> <s_epik_cmdline>
J2VwaWtfcHl0aG9uJywgJy1waHQnLCAnMC4wJywgJy1waCcsICc3LjQnLCAnLXRuJywgJzgnLCAnLW1hJywgJzUwMCcsICctaW1hZScsICc8aW5maWxlLm1hZT4nLCAnLW9tYWUnLCAnPG91dGZpbGUubWFlPic=

> <r_lp_tautomer_probability>
1

> <r_epik_Ionization_Penalty>
0

> <r_epik_Ionization_Penalty_Charging>
0

> <r_epik_Ionization_Penalty_Neutral>
0

> <r_epik_State_Penalty>
-0

> <r_epik_Charging_Adjusted_Penalty>
0

> <i_epik_Tot_Q>
0

> <i_epik_Tot_abs_Q>
0

> <s_lp_Force_Field>
S-OPLS

> <r_lp_Energy>
37.1053

> <b_lp_Chiralities_Consistent>
1

> <s_lp_Variant>
lig_CHEMBL1085895-1

> <s_i_glide_gridfile>
glide-grid_3L9H-EG5

> <i_i_glide_lignum>
20

> <i_i_glide_rotatable_bonds>
10

> <r_i_docking_score>
-8.5616

> <r_i_glide_ligand_efficiency>
-0.259443

> <r_i_glide_ligand_efficiency_sa>
-0.832171

> <r_i_glide_ligand_efficiency_ln>
-1.90406

> <r_i_glide_gscore>
-8.5616

> <r_i_glide_lipo>
-4.69378

> <r_i_glide_hbond>
-0.458889

> <r_i_glide_metal>
-0

> <r_i_glide_rewards>
-1.44047

> <r_i_glide_evdw>
-50.4827

> <r_i_glide_ecoul>
-1.8215

> <r_i_glide_erotb>
0.844263

> <r_i_glide_esite>
-0.0153697

> <r_i_glide_emodel>
-77.9653

> <r_i_glide_energy>
-52.3042

> <r_i_glide_einternal>
1.46097

> <i_i_glide_confnum>
3

> <i_i_glide_posenum>
61

> <r_i_glide_eff_state_penalty>
-0

> <r_i_glide_rmsd>
0.0366479

> <s_glide_core_constrain_type>
snapped_core_restrain
$$$$