lig_1b
                    3D
 Schrodinger Suite 2021-1.
 52 54  0  0  1  0            999 V2000
   22.1076  -13.2623   25.0104 C   0  0  0  0  0  0
   20.9542  -12.6497   25.5336 C   0  0  0  0  0  0
   19.7011  -13.2742   25.3886 C   0  0  0  0  0  0
   19.5901  -14.5061   24.7097 C   0  0  0  0  0  0
   20.7535  -15.1281   24.2082 C   0  0  0  0  0  0
   22.0080  -14.5035   24.3543 C   0  0  0  0  0  0
   18.2264  -15.1596   24.5272 C   0  0  0  0  0  0
   17.6537  -15.1603   23.0848 C   0  0  2  0  0  0
   17.4186  -13.7338   22.5575 C   0  0  0  0  0  0
   16.4735  -13.1074   23.0393 O   0  0  0  0  0  0
   18.2225  -13.2015   21.6024 N   0  0  0  0  0  0
   19.4323  -13.8314   21.0673 C   0  0  0  0  0  0
   20.1311  -12.7782   20.2140 C   0  0  0  0  0  0
   19.0678  -11.7456   19.8907 C   0  0  0  0  0  0
   18.0064  -11.8718   20.9975 C   0  0  1  0  0  0
   16.5922  -11.6988   20.4000 C   0  0  0  0  0  0
   16.0867  -12.5985   19.7271 O   0  0  0  0  0  0
   15.9675  -10.5417   20.6506 N   0  0  0  0  0  0
   14.6263  -10.1967   20.1979 C   0  0  0  0  0  0
   13.5505  -10.4983   21.2187 C   0  0  0  0  0  0
   12.8679  -11.7327   21.1959 C   0  0  0  0  0  0
   11.8439  -11.9898   22.1286 C   0  0  0  0  0  0
   11.4943  -11.0089   23.0769 C   0  0  0  0  0  0
   12.2002   -9.7910   23.1212 C   0  0  0  0  0  0
   13.2196   -9.5312   22.1888 C   0  0  0  0  0  0
   11.8440   -8.6208   24.3348 Cl  0  0  0  0  0  0
   16.3595  -15.8715   23.0530 N   0  3  0  0  0  0
   18.3294  -15.7130   22.4314 H   0  0  0  0  0  0
   18.1808  -11.1172   21.7681 H   0  0  0  0  0  0
   16.0334  -15.8997   22.0899 H   0  0  0  0  0  0
   16.4568  -16.8109   23.4102 H   0  0  0  0  0  0
   23.0707  -12.7873   25.1216 H   0  0  0  0  0  0
   21.0302  -11.7025   26.0463 H   0  0  0  0  0  0
   18.8267  -12.7989   25.8066 H   0  0  0  0  0  0
   20.6900  -16.0767   23.6953 H   0  0  0  0  0  0
   22.8961  -14.9750   23.9617 H   0  0  0  0  0  0
   18.3100  -16.1873   24.8848 H   0  0  0  0  0  0
   17.5157  -14.6759   25.2010 H   0  0  0  0  0  0
   20.0994  -14.1905   21.8473 H   0  0  0  0  0  0
   19.1497  -14.6803   20.4444 H   0  0  0  0  0  0
   20.9206  -12.3097   20.8008 H   0  0  0  0  0  0
   20.5966  -13.2000   19.3234 H   0  0  0  0  0  0
   19.4842  -10.7392   19.8550 H   0  0  0  0  0  0
   18.6528  -11.9625   18.9054 H   0  0  0  0  0  0
   16.4633   -9.8469   21.1990 H   0  0  0  0  0  0
   14.6043   -9.1275   19.9954 H   0  0  0  0  0  0
   14.3897  -10.6889   19.2535 H   0  0  0  0  0  0
   13.1217  -12.4801   20.4595 H   0  0  0  0  0  0
   11.3160  -12.9314   22.1145 H   0  0  0  0  0  0
   10.7074  -11.2048   23.7921 H   0  0  0  0  0  0
   13.7529   -8.5914   22.2292 H   0  0  0  0  0  0
   15.6790  -15.3460   23.5938 H   0  0  0  0  0  0
  1  6  1  0  0  0
  1  2  2  0  0  0
  1 32  1  0  0  0
  2  3  1  0  0  0
  2 33  1  0  0  0
  3  4  2  0  0  0
  3 34  1  0  0  0
  4  5  1  0  0  0
  4  7  1  0  0  0
  5  6  2  0  0  0
  5 35  1  0  0  0
  6 36  1  0  0  0
  7  8  1  0  0  0
  7 37  1  0  0  0
  7 38  1  0  0  0
  8 28  1  0  0  0
  8  9  1  0  0  0
  8 27  1  0  0  0
  9 10  2  0  0  0
  9 11  1  0  0  0
 11 15  1  0  0  0
 11 12  1  0  0  0
 12 13  1  0  0  0
 12 39  1  0  0  0
 12 40  1  0  0  0
 13 14  1  0  0  0
 13 41  1  0  0  0
 13 42  1  0  0  0
 14 15  1  0  0  0
 14 43  1  0  0  0
 14 44  1  0  0  0
 15 29  1  0  0  0
 15 16  1  0  0  0
 16 17  2  0  0  0
 16 18  1  0  0  0
 18 19  1  0  0  0
 18 45  1  0  0  0
 19 20  1  0  0  0
 19 46  1  0  0  0
 19 47  1  0  0  0
 20 25  1  0  0  0
 20 21  2  0  0  0
 21 22  1  0  0  0
 21 48  1  0  0  0
 22 23  2  0  0  0
 22 49  1  0  0  0
 23 24  1  0  0  0
 23 50  1  0  0  0
 24 25  2  0  0  0
 24 26  1  0  0  0
 25 51  1  0  0  0
 27 30  1  0  0  0
 27 31  1  0  0  0
 27 52  1  0  0  0
M  CHG  1  27   1
M  END
> <s_m_source_file>
ligprep_thrombin.smi

> <i_m_source_file_index>
2

> <i_lp_mmshare_version>
53161

> <i_f3d_flags>
0

> <s_epik_input>
W2NIXTFbY0hdW2NIXVtjSF1bY0hdYzFbQ0gyXVtDQEBIXShbTkgyXSlDKD1PKU4yW0NIMl1bQ0gyXVtDSDJdW0NASF0yQyg9TylbTkhdW0NIMl1jM1tjSF1bY0hdW2NIXWMoQ2wpW2NIXTM=

> <s_epik_cmdline>
J2VwaWtfcHl0aG9uJywgJy1waHQnLCAnMC4wJywgJy1waCcsICc3LjQnLCAnLXRuJywgJzgnLCAnLW1hJywgJzUwMCcsICctaW1hZScsICc8aW5maWxlLm1hZT4nLCAnLW9tYWUnLCAnPG91dGZpbGUubWFlPic=

> <r_epik_Ionization_Penalty>
0.3822

> <r_epik_Ionization_Penalty_Charging>
0.3822

> <r_epik_Ionization_Penalty_Neutral>
0

> <r_epik_State_Penalty>
0.3803

> <r_epik_Charging_Adjusted_Penalty>
0.762511

> <i_epik_Tot_Q>
1

> <i_epik_Tot_abs_Q>
1

> <s_lp_Force_Field>
S-OPLS

> <r_lp_Energy>
37.925

> <b_lp_Chiralities_Consistent>
1

> <s_lp_Variant>
lig_1b-1

> <s_i_glide_gridfile>
glide-grid_2ZFF-Thrombin

> <i_i_glide_lignum>
2

> <i_i_glide_rotatable_bonds>
8

> <r_i_docking_score>
-10.7807

> <r_i_glide_ligand_efficiency>
-0.399287

> <r_i_glide_ligand_efficiency_sa>
-1.19786

> <r_i_glide_ligand_efficiency_ln>
-2.50958

> <r_i_glide_gscore>
-11.161

> <r_i_glide_lipo>
-4.88083

> <r_i_glide_hbond>
-0.864

> <r_i_glide_metal>
-0

> <r_i_glide_rewards>
-1.51727

> <r_i_glide_evdw>
-48.0778

> <r_i_glide_ecoul>
-16.6981

> <r_i_glide_erotb>
1.04047

> <r_i_glide_esite>
-0.0307891

> <r_i_glide_emodel>
-114.19

> <r_i_glide_energy>
-64.7759

> <r_i_glide_einternal>
6.03237e-07

> <i_i_glide_confnum>
6

> <i_i_glide_posenum>
2

> <r_i_glide_eff_state_penalty>
0.3803

> <r_i_glide_rmsd>
0.090198

> <s_glide_core_constrain_type>
snapped_core_restrain
$$$$