lig_29
                    3D
 Schrodinger Suite 2021-1.
 49 51  0  0  1  0            999 V2000
   28.7003   14.1228    9.0087 H   0  0  0  0  0  0
   27.6354   14.1445    8.8303 C   0  0  0  0  0  0
   26.9889   13.0009    8.3243 C   0  0  0  0  0  0
   27.5573   12.1064    8.1241 H   0  0  0  0  0  0
   25.5963   13.0006    8.1154 C   0  0  0  0  0  0
   24.8538   14.1880    8.3454 C   0  0  0  0  0  0
   25.5099   15.3186    8.8932 C   0  0  0  0  0  0
   24.9182   16.1956    9.1145 H   0  0  0  0  0  0
   26.9016   15.3007    9.1530 C   0  0  0  0  0  0
   27.6012   16.3511    9.7064 O   0  0  0  0  0  0
   26.8655   17.4578   10.2111 C   0  0  0  0  0  0
   26.1281   17.1123   10.9375 H   0  0  0  0  0  0
   26.3241   17.9512    9.4043 H   0  0  0  0  0  0
   27.8341   18.4511   10.8809 C   0  0  0  0  0  0
   28.4151   17.9010   11.6240 H   0  0  0  0  0  0
   27.0648   19.5612   11.6143 C   0  0  0  0  0  0
   26.4462   20.1422   10.9274 H   0  0  0  0  0  0
   27.7473   20.2490   12.1170 H   0  0  0  0  0  0
   26.4061   19.1392   12.3710 H   0  0  0  0  0  0
   28.8195   19.0499    9.8687 C   0  0  0  0  0  0
   28.2970   19.5961    9.0840 H   0  0  0  0  0  0
   29.5083   19.7427   10.3487 H   0  0  0  0  0  0
   29.4157   18.2702    9.3937 H   0  0  0  0  0  0
   23.3556   14.2265    8.0170 C   0  0  2  0  0  0
   22.9926   15.4341    7.1363 C   0  0  0  0  0  0
   23.4258   15.6146    5.9957 O   0  0  0  0  0  0
   22.1552   16.2174    7.8065 N   0  0  0  0  0  0
   21.5913   17.4981    7.3837 C   0  0  0  0  0  0
   21.8214   18.2488    8.1354 H   0  0  0  0  0  0
   22.0006   17.8336    6.4306 H   0  0  0  0  0  0
   20.5041   17.4360    7.2935 H   0  0  0  0  0  0
   21.9292   15.6330    9.0356 C   0  0  0  0  0  0
   21.0874   16.2606    9.9312 N   0  0  0  0  0  0
   21.0374   15.9726   10.9084 H   0  0  0  0  0  0
   22.5647   14.5266    9.2029 N   0  0  0  0  0  0
   22.8761   12.9102    7.3708 C   0  0  0  0  0  0
   23.0713   12.9502    6.2963 H   0  0  0  0  0  0
   21.7967   12.7979    7.4785 H   0  0  0  0  0  0
   23.6060   11.6754    7.9278 C   0  0  0  0  0  0
   23.1871   10.4317    7.1301 C   0  0  0  0  0  0
   22.1227   10.2291    7.2411 H   0  0  0  0  0  0
   23.3900   10.5583    6.0668 H   0  0  0  0  0  0
   23.7413    9.5552    7.4698 H   0  0  0  0  0  0
   23.3356   11.4336    9.4330 C   0  0  0  0  0  0
   22.2663   11.3493    9.6390 H   0  0  0  0  0  0
   23.8035   10.5113    9.7706 H   0  0  0  0  0  0
   23.7310   12.2290   10.0643 H   0  0  0  0  0  0
   25.0095   11.8246    7.7001 O   0  0  0  0  0  0
   20.6782   17.1831    9.8097 H   0  0  0  0  0  0
  1  2  1  0  0  0
  2  9  1  0  0  0
  2  3  2  0  0  0
  3  4  1  0  0  0
  3  5  1  0  0  0
  5 48  1  0  0  0
  5  6  2  0  0  0
  6  7  1  0  0  0
  6 24  1  0  0  0
  7  8  1  0  0  0
  7  9  2  0  0  0
  9 10  1  0  0  0
 10 11  1  0  0  0
 11 12  1  0  0  0
 11 13  1  0  0  0
 11 14  1  0  0  0
 14 15  1  0  0  0
 14 16  1  0  0  0
 14 20  1  0  0  0
 16 17  1  0  0  0
 16 18  1  0  0  0
 16 19  1  0  0  0
 20 21  1  0  0  0
 20 22  1  0  0  0
 20 23  1  0  0  0
 24 35  1  0  0  0
 24 25  1  0  0  0
 24 36  1  0  0  0
 25 26  2  0  0  0
 25 27  1  0  0  0
 27 28  1  0  0  0
 27 32  1  0  0  0
 28 29  1  0  0  0
 28 30  1  0  0  0
 28 31  1  0  0  0
 32 33  1  0  0  0
 32 35  2  0  0  0
 33 34  1  0  0  0
 33 49  1  0  0  0
 36 37  1  0  0  0
 36 38  1  0  0  0
 36 39  1  0  0  0
 39 40  1  0  0  0
 39 44  1  0  0  0
 39 48  1  0  0  0
 40 41  1  0  0  0
 40 42  1  0  0  0
 40 43  1  0  0  0
 44 45  1  0  0  0
 44 46  1  0  0  0
 44 47  1  0  0  0
M  END
> <s_m_source_file>
ligprep_bace_hunt.smi

> <i_m_source_file_index>
20

> <i_lp_mmshare_version>
53161

> <i_f3d_flags>
0

> <s_epik_input>
W0NIM11bQ0hdKFtDSDNdKVtDSDJdT2MoW2NIXTEpW2NIXVtjSF1jKE9DKFtDSDJdMikoW0NIM10pW0NIM10pYzFbQ0BAXTIzQyg9TylOKFtDSDNdKUMoPU4zKVtOSDJd

> <s_epik_cmdline>
J2VwaWtfcHl0aG9uJywgJy1waHQnLCAnMC4wJywgJy1waCcsICc3LjQnLCAnLXRuJywgJzgnLCAnLW1hJywgJzUwMCcsICctaW1hZScsICc8aW5maWxlLm1hZT4nLCAnLW9tYWUnLCAnPG91dGZpbGUubWFlPic=

> <r_lp_tautomer_probability>
1

> <r_epik_Ionization_Penalty>
1.0455

> <r_epik_Ionization_Penalty_Charging>
0

> <r_epik_Ionization_Penalty_Neutral>
1.0455

> <r_epik_State_Penalty>
-0

> <r_epik_Charging_Adjusted_Penalty>
0

> <i_epik_Tot_Q>
0

> <i_epik_Tot_abs_Q>
0

> <s_epik_Chemistry_Notes>
This compound has an imine and may undergo hydrolysis.

> <s_lp_Force_Field>
S-OPLS

> <r_lp_Energy>
26.8924

> <b_lp_Chiralities_Consistent>
1

> <s_lp_Variant>
lig_29-1

> <s_i_glide_gridfile>
glide-grid_4JPC-BACE_HUNT

> <i_i_glide_lignum>
20

> <i_i_glide_rotatable_bonds>
3

> <r_i_docking_score>
-6.29526

> <r_i_glide_ligand_efficiency>
-0.262303

> <r_i_glide_ligand_efficiency_sa>
-0.756611

> <r_i_glide_ligand_efficiency_ln>
-1.50674

> <r_i_glide_gscore>
-6.29526

> <r_i_glide_lipo>
-2.23309

> <r_i_glide_hbond>
-0.236679

> <r_i_glide_metal>
-0

> <r_i_glide_rewards>
-1.48501

> <r_i_glide_evdw>
-36.5546

> <r_i_glide_ecoul>
-4.72028

> <r_i_glide_erotb>
0.342722

> <r_i_glide_esite>
-0.147429

> <r_i_glide_emodel>
-57.5004

> <r_i_glide_energy>
-41.2749

> <r_i_glide_einternal>
0.924813

> <i_i_glide_confnum>
9

> <i_i_glide_posenum>
2

> <r_i_glide_eff_state_penalty>
-0

> <r_i_glide_rmsd>
0.0953949

> <s_glide_core_constrain_type>
snapped_core_restrain
$$$$