lig_21
                    3D
 Schrodinger Suite 2021-1.
 49 52  0  0  1  0            999 V2000
   11.3250   46.8273   52.2083 H   0  0  0  0  0  0
   10.4986   46.2850   51.7736 C   0  0  0  0  0  0
    9.2362   46.5048   52.1176 N   0  0  0  0  0  0
    8.5696   45.6448   51.2567 C   0  0  0  0  0  0
    7.2077   45.3378   51.0656 C   0  0  0  0  0  0
    6.2117   45.8809   51.8478 O   0  0  0  0  0  0
    4.8719   45.5663   51.4814 C   0  0  0  0  0  0
    4.7340   44.5203   51.2047 H   0  0  0  0  0  0
    4.6262   46.1622   50.5989 H   0  0  0  0  0  0
    3.8887   45.8558   52.6201 C   0  0  0  0  0  0
    4.0989   46.8389   53.0337 H   0  0  0  0  0  0
    2.4650   45.8730   52.0463 C   0  0  0  0  0  0
    2.2606   44.9370   51.5189 H   0  0  0  0  0  0
    2.3663   46.6702   51.3043 H   0  0  0  0  0  0
    1.4049   46.0723   53.1382 C   0  0  0  0  0  0
    0.4067   46.0503   52.7045 H   0  0  0  0  0  0
    1.5281   47.0566   53.5871 H   0  0  0  0  0  0
    1.5320   44.9949   54.2306 C   0  0  0  0  0  0
    1.3082   44.0174   53.8048 H   0  0  0  0  0  0
    0.7920   45.1724   55.0128 H   0  0  0  0  0  0
    2.9432   44.9912   54.8333 C   0  0  0  0  0  0
    3.0271   44.2001   55.5786 H   0  0  0  0  0  0
    3.1232   45.9297   55.3595 H   0  0  0  0  0  0
    4.0125   44.8024   53.7427 C   0  0  0  0  0  0
    5.0055   44.8452   54.1944 H   0  0  0  0  0  0
    3.9162   43.7946   53.3269 H   0  0  0  0  0  0
    6.8931   44.4315   50.1131 N   0  0  0  0  0  0
    7.8531   43.8295   49.4069 C   0  0  0  0  0  0
    7.4419   42.8127   48.5915 N   0  0  0  0  0  0
    8.1610   42.4661   47.9689 H   0  0  0  0  0  0
    6.2924   42.0166   48.5994 C   0  0  0  0  0  0
    5.6587   41.6644   49.8123 C   0  0  0  0  0  0
    6.0840   41.9703   50.7557 H   0  0  0  0  0  0
    4.4586   40.9342   49.8040 C   0  0  0  0  0  0
    3.9735   40.6879   50.7376 H   0  0  0  0  0  0
    3.8998   40.5238   48.5804 C   0  0  0  0  0  0
    2.9865   39.9504   48.5843 H   0  0  0  0  0  0
    4.5350   40.8219   47.3584 C   0  0  0  0  0  0
    3.9083   40.3867   46.2117 O   0  0  0  0  0  0
    4.5303   40.6701   44.9651 C   0  0  0  0  0  0
    3.9258   40.2583   44.1561 H   0  0  0  0  0  0
    4.6175   41.7428   44.7950 H   0  0  0  0  0  0
    5.5178   40.2099   44.9065 H   0  0  0  0  0  0
    5.7409   41.5731   47.3775 C   0  0  0  0  0  0
    6.2554   41.8348   46.4652 H   0  0  0  0  0  0
    9.1699   44.0143   49.4543 N   0  0  0  0  0  0
    9.4733   44.9305   50.4172 C   0  0  0  0  0  0
   10.7137   45.3828   50.8088 N   0  0  0  0  0  0
   11.6272   45.1540   50.4230 H   0  0  0  0  0  0
  1  2  1  0  0  0
  2 48  1  0  0  0
  2  3  2  0  0  0
  3  4  1  0  0  0
  4 47  1  0  0  0
  4  5  2  0  0  0
  5  6  1  0  0  0
  5 27  1  0  0  0
  6  7  1  0  0  0
  7  8  1  0  0  0
  7  9  1  0  0  0
  7 10  1  0  0  0
 10 24  1  0  0  0
 10 11  1  0  0  0
 10 12  1  0  0  0
 12 13  1  0  0  0
 12 14  1  0  0  0
 12 15  1  0  0  0
 15 16  1  0  0  0
 15 17  1  0  0  0
 15 18  1  0  0  0
 18 19  1  0  0  0
 18 20  1  0  0  0
 18 21  1  0  0  0
 21 22  1  0  0  0
 21 23  1  0  0  0
 21 24  1  0  0  0
 24 25  1  0  0  0
 24 26  1  0  0  0
 27 28  2  0  0  0
 28 29  1  0  0  0
 28 46  1  0  0  0
 29 30  1  0  0  0
 29 31  1  0  0  0
 31 44  1  0  0  0
 31 32  2  0  0  0
 32 33  1  0  0  0
 32 34  1  0  0  0
 34 35  1  0  0  0
 34 36  2  0  0  0
 36 37  1  0  0  0
 36 38  1  0  0  0
 38 39  1  0  0  0
 38 44  2  0  0  0
 39 40  1  0  0  0
 40 41  1  0  0  0
 40 42  1  0  0  0
 40 43  1  0  0  0
 44 45  1  0  0  0
 46 47  2  0  0  0
 47 48  1  0  0  0
 48 49  1  0  0  0
M  END
> <s_m_source_file>
ligprep_cdk2.smi

> <i_m_source_file_index>
9

> <i_lp_mmshare_version>
53161

> <i_f3d_flags>
0

> <s_epik_input>
W0NIM11PYyhbY0hdMSlbY0hdW2NIXVtjSF1jMVtOSF1jKG5jKGMyMylbbkhdW2NIXW4yKW5jM09bQ0gyXVtDSF00W0NIMl1bQ0gyXVtDSDJdW0NIMl1bQ0gyXTQ=

> <s_epik_cmdline>
J2VwaWtfcHl0aG9uJywgJy1waHQnLCAnMC4wJywgJy1waCcsICc3LjQnLCAnLXRuJywgJzgnLCAnLW1hJywgJzUwMCcsICctaW1hZScsICc8aW5maWxlLm1hZT4nLCAnLW9tYWUnLCAnPG91dGZpbGUubWFlPic=

> <r_lp_tautomer_probability>
1

> <r_epik_Ionization_Penalty>
0.0272

> <r_epik_Ionization_Penalty_Charging>
0

> <r_epik_Ionization_Penalty_Neutral>
0.0272

> <r_epik_State_Penalty>
-0

> <r_epik_Charging_Adjusted_Penalty>
0

> <i_epik_Tot_Q>
0

> <i_epik_Tot_abs_Q>
0

> <s_lp_Force_Field>
S-OPLS

> <r_lp_Energy>
29.8067

> <b_lp_Chiralities_Consistent>
1

> <s_lp_Variant>
lig_21-1

> <s_i_glide_gridfile>
glide-grid_1H1Q-CDK2

> <i_i_glide_lignum>
9

> <i_i_glide_rotatable_bonds>
6

> <r_i_docking_score>
-10.2998

> <r_i_glide_ligand_efficiency>
-0.396145

> <r_i_glide_ligand_efficiency_sa>
-1.17358

> <r_i_glide_ligand_efficiency_ln>
-2.41887

> <r_i_glide_gscore>
-10.2998

> <r_i_glide_lipo>
-2.3948

> <r_i_glide_hbond>
-1.17398

> <r_i_glide_metal>
-0

> <r_i_glide_rewards>
-3.26351

> <r_i_glide_evdw>
-40.0532

> <r_i_glide_ecoul>
-14.0463

> <r_i_glide_erotb>
0.642137

> <r_i_glide_esite>
0

> <r_i_glide_emodel>
-84.2451

> <r_i_glide_energy>
-54.0996

> <r_i_glide_einternal>
3.32442e-07

> <i_i_glide_confnum>
2

> <i_i_glide_posenum>
8

> <r_i_glide_eff_state_penalty>
-0

> <r_i_glide_rmsd>
0.100544

> <s_glide_core_constrain_type>
snapped_core_restrain
$$$$