lig_CHEMBL1093088
                    3D
 Schrodinger Suite 2021-1.
 51 55  0  0  1  0            999 V2000
   23.1665    8.1599   15.5245 H   0  0  0  0  0  0
   23.5016    9.0446   16.0491 C   0  0  0  0  0  0
   24.6725    9.0806   16.6885 N   0  0  0  0  0  0
   24.7432   10.3657   17.1124 N   0  0  0  0  0  0
   25.9359   10.8831   17.7739 C   0  0  0  0  0  0
   25.6661   11.8350   18.2330 H   0  0  0  0  0  0
   26.1641   10.1651   18.7333 H   0  0  0  0  0  0
   27.1081   11.1455   16.7844 C   0  0  2  0  0  0
   27.1398   12.2198   16.5922 H   0  0  0  0  0  0
   26.8785   10.5047   15.5294 O   0  0  0  0  0  0
   27.8109   10.8116   14.4992 C   0  0  2  0  0  0
   27.8221   11.8924   14.3480 H   0  0  0  0  0  0
   27.3788   10.1632   13.1930 C   0  0  0  0  0  0
   26.3968   10.7885   12.3985 C   0  0  0  0  0  0
   25.9574   11.7187   12.7270 H   0  0  0  0  0  0
   26.0261   10.2397   11.1537 C   0  0  0  0  0  0
   25.0539   10.9737   10.2521 C   0  0  0  0  0  0
   24.3654   10.1030    9.5174 F   0  0  0  0  0  0
   24.1994   11.7211   10.9524 F   0  0  0  0  0  0
   25.7445   11.7700    9.4371 F   0  0  0  0  0  0
   26.6151    9.0331   10.7205 C   0  0  0  0  0  0
   26.3384    8.6019    9.7702 H   0  0  0  0  0  0
   27.5823    8.3963   11.5179 C   0  0  0  0  0  0
   28.0314    7.4784   11.1682 H   0  0  0  0  0  0
   27.9785    8.9596   12.7473 C   0  0  0  0  0  0
   28.9924    8.3203   13.4731 N   0  0  0  0  0  0
   29.1670    7.3393   13.2915 H   0  0  0  0  0  0
   29.3215    8.7947   14.8114 C   0  0  1  0  0  0
   28.5883    8.3498   15.4859 H   0  0  0  0  0  0
   30.6949    8.2838   15.2104 C   0  0  0  0  0  0
   30.8473    7.4180   16.3123 C   0  0  0  0  0  0
   29.9842    7.0997   16.8791 H   0  0  0  0  0  0
   32.1311    6.9695   16.6792 C   0  0  0  0  0  0
   32.2457    6.3051   17.5230 H   0  0  0  0  0  0
   33.2623    7.3702   15.9441 C   0  0  0  0  0  0
   34.2441    7.0163   16.2241 H   0  0  0  0  0  0
   33.1086    8.2097   14.8277 C   0  0  0  0  0  0
   33.9667    8.5092   14.2481 H   0  0  0  0  0  0
   31.8296    8.6661   14.4636 C   0  0  0  0  0  0
   31.7187    9.3118   13.6051 H   0  0  0  0  0  0
   29.2167   10.3405   14.9184 C   0  0  2  0  0  0
   29.9233   10.7581   14.1995 H   0  0  0  0  0  0
   29.5813   10.9323   16.2980 C   0  0  0  0  0  0
   30.5187   10.5264   16.6731 H   0  0  0  0  0  0
   29.7399   12.0067   16.1919 H   0  0  0  0  0  0
   28.4725   10.6959   17.3272 C   0  0  0  0  0  0
   28.7023   11.2258   18.2521 H   0  0  0  0  0  0
   28.4303    9.6353   17.5787 H   0  0  0  0  0  0
   23.5952   10.9638   16.7859 C   0  0  0  0  0  0
   23.3698   11.9896   17.0376 H   0  0  0  0  0  0
   22.7642   10.1974   16.0924 N   0  0  0  0  0  0
  1  2  1  0  0  0
  2 51  1  0  0  0
  2  3  2  0  0  0
  3  4  1  0  0  0
  4  5  1  0  0  0
  4 49  1  0  0  0
  5  6  1  0  0  0
  5  7  1  0  0  0
  5  8  1  0  0  0
  8 46  1  0  0  0
  8  9  1  0  0  0
  8 10  1  0  0  0
 10 11  1  0  0  0
 11 41  1  0  0  0
 11 12  1  0  0  0
 11 13  1  0  0  0
 13 25  1  0  0  0
 13 14  2  0  0  0
 14 15  1  0  0  0
 14 16  1  0  0  0
 16 17  1  0  0  0
 16 21  2  0  0  0
 17 18  1  0  0  0
 17 19  1  0  0  0
 17 20  1  0  0  0
 21 22  1  0  0  0
 21 23  1  0  0  0
 23 24  1  0  0  0
 23 25  2  0  0  0
 25 26  1  0  0  0
 26 27  1  0  0  0
 26 28  1  0  0  0
 28 29  1  0  0  0
 28 30  1  0  0  0
 28 41  1  0  0  0
 30 39  1  0  0  0
 30 31  2  0  0  0
 31 32  1  0  0  0
 31 33  1  0  0  0
 33 34  1  0  0  0
 33 35  2  0  0  0
 35 36  1  0  0  0
 35 37  1  0  0  0
 37 38  1  0  0  0
 37 39  2  0  0  0
 39 40  1  0  0  0
 41 42  1  0  0  0
 41 43  1  0  0  0
 43 44  1  0  0  0
 43 45  1  0  0  0
 43 46  1  0  0  0
 46 47  1  0  0  0
 46 48  1  0  0  0
 49 50  1  0  0  0
 49 51  2  0  0  0
M  END
> <s_m_source_file>
ligprep_eg5.smi

> <i_m_source_file_index>
26

> <i_lp_mmshare_version>
53161

> <i_f3d_flags>
0

> <s_epik_input>
W2NIXTFuW2NIXW5uMVtDSDJdW0NASF0oTzIpW0NIMl1bQ0gyXVtDQEhdM1tDQEBIXShbTkhdYyhjNFtDQEBIXTIzKVtjSF1bY0hdYyhbY0hdNClDKEYpKEYpRiljNVtjSF1bY0hdW2NIXVtjSF1bY0hdNQ==

> <s_epik_cmdline>
J2VwaWtfcHl0aG9uJywgJy1waHQnLCAnMC4wJywgJy1waCcsICc3LjQnLCAnLXRuJywgJzgnLCAnLW1hJywgJzUwMCcsICctaW1hZScsICc8aW5maWxlLm1hZT4nLCAnLW9tYWUnLCAnPG91dGZpbGUubWFlPic=

> <r_lp_tautomer_probability>
1

> <r_epik_Ionization_Penalty>
0

> <r_epik_Ionization_Penalty_Charging>
0

> <r_epik_Ionization_Penalty_Neutral>
0

> <r_epik_State_Penalty>
-0

> <r_epik_Charging_Adjusted_Penalty>
0

> <i_epik_Tot_Q>
0

> <i_epik_Tot_abs_Q>
0

> <s_lp_Force_Field>
S-OPLS

> <r_lp_Energy>
35.6799

> <b_lp_Chiralities_Consistent>
1

> <s_lp_Variant>
lig_CHEMBL1093088-1

> <s_i_glide_gridfile>
glide-grid_3L9H-EG5

> <i_i_glide_lignum>
27

> <i_i_glide_rotatable_bonds>
4

> <r_i_docking_score>
-8.7888

> <r_i_glide_ligand_efficiency>
-0.29296

> <r_i_glide_ligand_efficiency_sa>
-0.910295

> <r_i_glide_ligand_efficiency_ln>
-1.99691

> <r_i_glide_gscore>
-8.7888

> <r_i_glide_lipo>
-4.68205

> <r_i_glide_hbond>
-0.113257

> <r_i_glide_metal>
-0

> <r_i_glide_rewards>
-1.79452

> <r_i_glide_evdw>
-48.5649

> <r_i_glide_ecoul>
-1.03311

> <r_i_glide_erotb>
0.459686

> <r_i_glide_esite>
-0.0754478

> <r_i_glide_emodel>
-73.7718

> <r_i_glide_energy>
-49.598

> <r_i_glide_einternal>
0.63496

> <i_i_glide_confnum>
51

> <i_i_glide_posenum>
14

> <r_i_glide_eff_state_penalty>
-0

> <r_i_glide_rmsd>
0.0774478

> <s_glide_core_constrain_type>
snapped_core_restrain
$$$$