lig_163
                    3D
 Schrodinger Suite 2021-1.
 38 40  0  0  1  0            999 V2000
   28.2975    2.0274  -11.7867 H   0  0  0  0  0  0
   27.6259    1.6771  -11.2085 O   0  0  0  0  0  0
   27.2632    0.3998  -11.6727 C   0  0  1  0  0  0
   28.1255   -0.2650  -11.6919 H   0  0  0  0  0  0
   26.1292   -0.1196  -10.8344 C   0  0  0  0  0  0
   24.9238    0.0309  -11.5105 C   0  0  0  0  0  0
   23.7034   -0.3558  -10.9420 C   0  0  0  0  0  0
   22.5818   -0.2320  -11.7200 O   0  0  0  0  0  0
   21.3605   -0.5150  -11.1880 C   0  0  0  0  0  0
   20.7774   -1.7785  -11.4016 C   0  0  0  0  0  0
   21.3012   -2.5322  -11.9720 H   0  0  0  0  0  0
   19.5067   -2.0537  -10.8678 C   0  0  0  0  0  0
   18.9277   -3.2529  -11.0803 F   0  0  0  0  0  0
   18.8251   -1.0683  -10.1334 C   0  0  0  0  0  0
   17.8509   -1.2984   -9.7305 H   0  0  0  0  0  0
   19.3937    0.2064   -9.9500 C   0  0  0  0  0  0
   18.6700    1.2482   -9.2481 C   0  0  0  0  0  0
   18.0951    2.0753   -8.6825 N   0  0  0  0  0  0
   20.6742    0.4732  -10.4594 C   0  0  0  0  0  0
   21.1263    1.4404  -10.2951 H   0  0  0  0  0  0
   23.7193   -0.8601   -9.6160 C   0  0  0  0  0  0
   22.8076   -1.1630   -9.1243 H   0  0  0  0  0  0
   24.9403   -0.9998   -8.9136 C   0  0  0  0  0  0
   24.9317   -1.3902   -7.9074 H   0  0  0  0  0  0
   26.1650   -0.6592   -9.5304 C   0  0  0  0  0  0
   27.6926   -0.8612   -8.6003 S   0  0  0  0  0  0
   28.7880   -1.1822   -9.5198 O   0  0  0  0  0  0
   27.4401   -1.7808   -7.4843 O   0  0  0  0  0  0
   28.0229    0.8014   -7.9095 C   0  0  0  0  0  0
   29.0225    0.8011   -7.4795 H   0  0  0  0  0  0
   27.9977    1.5490   -8.7019 H   0  0  0  0  0  0
   27.2576    1.0405   -7.1684 H   0  0  0  0  0  0
   25.1142    0.6155  -12.8847 C   0  0  0  0  0  0
   24.5551    0.0763  -13.6498 H   0  0  0  0  0  0
   24.7741    1.6515  -12.8698 H   0  0  0  0  0  0
   26.6376    0.5355  -13.0854 C   0  0  0  0  0  0
   26.8894   -0.5933  -13.7504 F   0  0  0  0  0  0
   27.1306    1.5530  -13.7938 F   0  0  0  0  0  0
  1  2  1  0  0  0
  2  3  1  0  0  0
  3 36  1  0  0  0
  3  4  1  0  0  0
  3  5  1  0  0  0
  5 25  1  0  0  0
  5  6  2  0  0  0
  6  7  1  0  0  0
  6 33  1  0  0  0
  7  8  1  0  0  0
  7 21  2  0  0  0
  8  9  1  0  0  0
  9 19  1  0  0  0
  9 10  2  0  0  0
 10 11  1  0  0  0
 10 12  1  0  0  0
 12 13  1  0  0  0
 12 14  2  0  0  0
 14 15  1  0  0  0
 14 16  1  0  0  0
 16 17  1  0  0  0
 16 19  2  0  0  0
 17 18  3  0  0  0
 19 20  1  0  0  0
 21 22  1  0  0  0
 21 23  1  0  0  0
 23 24  1  0  0  0
 23 25  2  0  0  0
 25 26  1  0  0  0
 26 27  2  0  0  0
 26 28  2  0  0  0
 26 29  1  0  0  0
 29 30  1  0  0  0
 29 31  1  0  0  0
 29 32  1  0  0  0
 33 34  1  0  0  0
 33 35  1  0  0  0
 33 36  1  0  0  0
 36 37  1  0  0  0
 36 38  1  0  0  0
M  END
> <s_m_source_file>
ligprep_hif2a.smi

> <i_m_source_file_index>
6

> <i_lp_mmshare_version>
53161

> <i_f3d_flags>
0

> <s_epik_input>
W09IXVtDQEBIXTFDKEYpKEYpW0NIMl1jKGMxMiljKFtjSF1bY0hdYzJTKD1PKSg9TylbQ0gzXSlPYzNbY0hdYyhGKVtjSF1jKEMjTilbY0hdMw==

> <s_epik_cmdline>
J2VwaWtfcHl0aG9uJywgJy1waHQnLCAnMC4wJywgJy1waCcsICc3LjQnLCAnLXRuJywgJzgnLCAnLW1hJywgJzUwMCcsICctaW1hZScsICc8aW5maWxlLm1hZT4nLCAnLW9tYWUnLCAnPG91dGZpbGUubWFlPic=

> <r_lp_tautomer_probability>
1

> <r_epik_Ionization_Penalty>
0.0012

> <r_epik_Ionization_Penalty_Charging>
0

> <r_epik_Ionization_Penalty_Neutral>
0.0012

> <r_epik_State_Penalty>
-0

> <r_epik_Charging_Adjusted_Penalty>
0

> <i_epik_Tot_Q>
0

> <i_epik_Tot_abs_Q>
0

> <s_lp_Force_Field>
S-OPLS

> <r_lp_Energy>
26.0446

> <b_lp_Chiralities_Consistent>
1

> <s_lp_Variant>
lig_163-1

> <s_i_glide_gridfile>
glide-grid_5TBM-HIF2a

> <i_i_glide_lignum>
6

> <i_i_glide_rotatable_bonds>
4

> <r_i_docking_score>
-12.3976

> <r_i_glide_ligand_efficiency>
-0.47683

> <r_i_glide_ligand_efficiency_sa>
-1.41261

> <r_i_glide_ligand_efficiency_ln>
-2.91153

> <r_i_glide_gscore>
-12.3976

> <r_i_glide_lipo>
-4.76514

> <r_i_glide_hbond>
-0.608

> <r_i_glide_metal>
-0

> <r_i_glide_rewards>
-3.42218

> <r_i_glide_evdw>
-54.8091

> <r_i_glide_ecoul>
-9.27145

> <r_i_glide_erotb>
0.528912

> <r_i_glide_esite>
0

> <r_i_glide_emodel>
-110.173

> <r_i_glide_energy>
-64.0805

> <r_i_glide_einternal>
-1.27053e-07

> <i_i_glide_confnum>
10

> <i_i_glide_posenum>
4

> <r_i_glide_eff_state_penalty>
-0

> <r_i_glide_rmsd>
0.0771701

> <s_glide_core_constrain_type>
snapped_core_restrain
$$$$