lig_CHEMBL1093087
                    3D
 Schrodinger Suite 2021-1.
 66 70  0  0  1  0            999 V2000
   23.2027    5.6448   18.3118 H   0  0  0  0  0  0
   23.7794    6.5540   18.4100 C   0  0  0  0  0  0
   24.3681    7.1678   17.2887 C   0  0  0  0  0  0
   24.2896    6.7374   16.3025 H   0  0  0  0  0  0
   25.1288    8.3328   17.4356 C   0  0  0  0  0  0
   25.5770    8.7488   16.5479 H   0  0  0  0  0  0
   25.3255    8.9139   18.7062 C   0  0  0  0  0  0
   26.0855   10.0980   18.8138 N   0  0  0  0  0  0
   26.5967   10.5128   20.1173 C   0  0  0  0  0  0
   26.8794    9.6314   20.6934 H   0  0  0  0  0  0
   27.5208   11.0707   19.9740 H   0  0  0  0  0  0
   25.5998   11.3867   20.9025 C   0  0  0  0  0  0
   25.4291   12.3314   20.3852 H   0  0  0  0  0  0
   24.6279   10.9001   20.9893 H   0  0  0  0  0  0
   26.0988   11.6814   22.2561 N   0  3  0  0  0  0
   25.4310   12.2681   22.7369 H   0  0  0  0  0  0
   26.9848   12.1617   22.1993 H   0  0  0  0  0  0
   25.9596   11.0721   17.7245 C   0  0  0  0  0  0
   25.0386   10.9251   17.1580 H   0  0  0  0  0  0
   25.8325   12.0504   18.1859 H   0  0  0  0  0  0
   27.1729   11.1818   16.7608 C   0  0  2  0  0  0
   27.2728   12.2419   16.5183 H   0  0  0  0  0  0
   26.8800   10.5080   15.5405 O   0  0  0  0  0  0
   27.8181   10.7608   14.4935 C   0  0  2  0  0  0
   27.8559   11.8372   14.3154 H   0  0  0  0  0  0
   27.3704   10.1096   13.1976 C   0  0  0  0  0  0
   26.3905   10.7479   12.4124 C   0  0  0  0  0  0
   25.9607   11.6799   12.7478 H   0  0  0  0  0  0
   26.0182   10.2144   11.1634 C   0  0  0  0  0  0
   25.0539   10.9670   10.2693 C   0  0  0  0  0  0
   24.3652   10.1119    9.5183 F   0  0  0  0  0  0
   24.2027   11.7089   10.9785 F   0  0  0  0  0  0
   25.7540   11.7711    9.4707 F   0  0  0  0  0  0
   26.6040    9.0114   10.7192 C   0  0  0  0  0  0
   26.3260    8.5993    9.7605 H   0  0  0  0  0  0
   27.5681    8.3597   11.5064 C   0  0  0  0  0  0
   28.0129    7.4441   11.1446 H   0  0  0  0  0  0
   27.9668    8.9075   12.7410 C   0  0  0  0  0  0
   28.9799    8.2578   13.4590 N   0  0  0  0  0  0
   29.1577    7.2770   13.2759 H   0  0  0  0  0  0
   29.3256    8.7311   14.7924 C   0  0  1  0  0  0
   28.6001    8.2887   15.4771 H   0  0  0  0  0  0
   30.7068    8.2262   15.1791 C   0  0  0  0  0  0
   30.8774    7.3812   16.2942 C   0  0  0  0  0  0
   30.0209    7.0645   16.8711 H   0  0  0  0  0  0
   32.1703    6.9662   16.6690 C   0  0  0  0  0  0
   32.2987    6.3252   17.5299 H   0  0  0  0  0  0
   33.2917    7.3701   15.9216 C   0  0  0  0  0  0
   34.2809    7.0406   16.2068 H   0  0  0  0  0  0
   33.1199    8.1831   14.7888 C   0  0  0  0  0  0
   33.9712    8.4869   14.2020 H   0  0  0  0  0  0
   31.8329    8.6132   14.4208 C   0  0  0  0  0  0
   31.7095    9.2453   13.5537 H   0  0  0  0  0  0
   29.2265   10.2758   14.8940 C   0  0  2  0  0  0
   29.9235   10.6840   14.1601 H   0  0  0  0  0  0
   29.6279   10.8708   16.2596 C   0  0  0  0  0  0
   30.5590   10.4439   16.6297 H   0  0  0  0  0  0
   29.8151   11.9386   16.1383 H   0  0  0  0  0  0
   28.5252   10.6767   17.3004 C   0  0  0  0  0  0
   28.7998   11.2135   18.2065 H   0  0  0  0  0  0
   28.4533    9.6199   17.5624 H   0  0  0  0  0  0
   24.7444    8.2764   19.8339 C   0  0  0  0  0  0
   24.8723    8.6605   20.8322 H   0  0  0  0  0  0
   23.9668    7.1117   19.6845 C   0  0  0  0  0  0
   23.5339    6.6281   20.5486 H   0  0  0  0  0  0
   26.2161   10.8200   22.7716 H   0  0  0  0  0  0
  1  2  1  0  0  0
  2 64  1  0  0  0
  2  3  2  0  0  0
  3  4  1  0  0  0
  3  5  1  0  0  0
  5  6  1  0  0  0
  5  7  2  0  0  0
  7  8  1  0  0  0
  7 62  1  0  0  0
  8  9  1  0  0  0
  8 18  1  0  0  0
  9 10  1  0  0  0
  9 11  1  0  0  0
  9 12  1  0  0  0
 12 13  1  0  0  0
 12 14  1  0  0  0
 12 15  1  0  0  0
 15 16  1  0  0  0
 15 17  1  0  0  0
 15 66  1  0  0  0
 18 19  1  0  0  0
 18 20  1  0  0  0
 18 21  1  0  0  0
 21 59  1  0  0  0
 21 22  1  0  0  0
 21 23  1  0  0  0
 23 24  1  0  0  0
 24 54  1  0  0  0
 24 25  1  0  0  0
 24 26  1  0  0  0
 26 38  1  0  0  0
 26 27  2  0  0  0
 27 28  1  0  0  0
 27 29  1  0  0  0
 29 30  1  0  0  0
 29 34  2  0  0  0
 30 31  1  0  0  0
 30 32  1  0  0  0
 30 33  1  0  0  0
 34 35  1  0  0  0
 34 36  1  0  0  0
 36 37  1  0  0  0
 36 38  2  0  0  0
 38 39  1  0  0  0
 39 40  1  0  0  0
 39 41  1  0  0  0
 41 42  1  0  0  0
 41 43  1  0  0  0
 41 54  1  0  0  0
 43 52  1  0  0  0
 43 44  2  0  0  0
 44 45  1  0  0  0
 44 46  1  0  0  0
 46 47  1  0  0  0
 46 48  2  0  0  0
 48 49  1  0  0  0
 48 50  1  0  0  0
 50 51  1  0  0  0
 50 52  2  0  0  0
 52 53  1  0  0  0
 54 55  1  0  0  0
 54 56  1  0  0  0
 56 57  1  0  0  0
 56 58  1  0  0  0
 56 59  1  0  0  0
 59 60  1  0  0  0
 59 61  1  0  0  0
 62 63  1  0  0  0
 62 64  2  0  0  0
 64 65  1  0  0  0
M  CHG  1  15   1
M  END
> <s_m_source_file>
ligprep_eg5.smi

> <i_m_source_file_index>
25

> <i_lp_mmshare_version>
53161

> <i_f3d_flags>
0

> <s_epik_input>
W2NIXTFbY0hdW2NIXVtjSF1bY0hdYzFOKFtDSDJdW0NIMl1bTkgyXSlbQ0gyXVtDQEhdKE8yKVtDSDJdW0NIMl1bQ0BIXTNbQ0BASF0oW05IXWMoYzRbQ0BASF0yMylbY0hdW2NIXWMoW2NIXTQpQyhGKShGKUYpYzVbY0hdW2NIXVtjSF1bY0hdW2NIXTU=

> <s_epik_cmdline>
J2VwaWtfcHl0aG9uJywgJy1waHQnLCAnMC4wJywgJy1waCcsICc3LjQnLCAnLXRuJywgJzgnLCAnLW1hJywgJzUwMCcsICctaW1hZScsICc8aW5maWxlLm1hZT4nLCAnLW9tYWUnLCAnPG91dGZpbGUubWFlPic=

> <r_lp_tautomer_probability>
1

> <r_epik_Ionization_Penalty>
0.0028

> <r_epik_Ionization_Penalty_Charging>
0.0028

> <r_epik_Ionization_Penalty_Neutral>
0

> <r_epik_State_Penalty>
-0

> <r_epik_Charging_Adjusted_Penalty>
0.00279424

> <i_epik_Tot_Q>
1

> <i_epik_Tot_abs_Q>
1

> <s_lp_Force_Field>
S-OPLS

> <r_lp_Energy>
58.0699

> <b_lp_Chiralities_Consistent>
1

> <s_lp_Variant>
lig_CHEMBL1093087-1

> <s_i_glide_gridfile>
glide-grid_3L9H-EG5

> <i_i_glide_lignum>
26

> <i_i_glide_rotatable_bonds>
7

> <r_i_docking_score>
-8.45268

> <r_i_glide_ligand_efficiency>
-0.241505

> <r_i_glide_ligand_efficiency_sa>
-0.78998

> <r_i_glide_ligand_efficiency_ln>
-1.85555

> <r_i_glide_gscore>
-8.45268

> <r_i_glide_lipo>
-4.74008

> <r_i_glide_hbond>
-0.154149

> <r_i_glide_metal>
-0

> <r_i_glide_rewards>
-1.26598

> <r_i_glide_evdw>
-49.9541

> <r_i_glide_ecoul>
-2.69882

> <r_i_glide_erotb>
0.610058

> <r_i_glide_esite>
0

> <r_i_glide_emodel>
-65.569

> <r_i_glide_energy>
-52.653

> <r_i_glide_einternal>
0.214141

> <i_i_glide_confnum>
37

> <i_i_glide_posenum>
51

> <r_i_glide_eff_state_penalty>
-0

> <r_i_glide_rmsd>
0.0778011

> <s_glide_core_constrain_type>
snapped_core_restrain
$$$$