lig_19
                    3D
 Schrodinger Suite 2021-1.
 45 49  0  0  1  0            999 V2000
   96.6987   45.9002  267.0662 H   0  0  0  0  0  0
   95.9900   46.7022  267.2136 C   0  0  0  0  0  0
   94.7222   46.4832  266.8137 N   0  0  0  0  0  0
   93.8276   47.4914  266.9572 C   0  0  0  0  0  0
   92.4998   47.3179  266.5070 C   0  0  0  0  0  0
   92.2078   46.3715  266.0770 H   0  0  0  0  0  0
   91.5517   48.3523  266.6277 C   0  0  0  0  0  0
   90.2086   48.2173  266.2514 N   0  0  0  0  0  0
   89.5595   48.8444  266.7036 H   0  0  0  0  0  0
   89.6198   47.3425  265.3283 C   0  0  0  0  0  0
   88.2748   46.9694  265.5338 C   0  0  0  0  0  0
   87.7366   47.3339  266.3965 H   0  0  0  0  0  0
   87.6228   46.1112  264.6276 C   0  0  0  0  0  0
   86.5990   45.8137  264.8029 H   0  0  0  0  0  0
   88.3096   45.6250  263.5009 C   0  0  0  0  0  0
   87.8149   44.9540  262.8140 H   0  0  0  0  0  0
   89.6419   46.0143  263.2747 C   0  0  0  0  0  0
   90.1807   45.6479  262.4135 H   0  0  0  0  0  0
   90.2956   46.8750  264.1788 C   0  0  0  0  0  0
   91.3137   47.1708  263.9694 H   0  0  0  0  0  0
   91.9452   49.5644  267.2138 C   0  0  0  0  0  0
   91.2238   50.3617  267.3206 H   0  0  0  0  0  0
   93.2589   49.7655  267.6765 C   0  0  0  0  0  0
   93.5738   51.0536  268.3055 C   0  0  0  0  0  0
   92.8874   51.4348  269.4716 C   0  0  0  0  0  0
   92.1591   50.7718  269.9141 H   0  0  0  0  0  0
   93.1431   52.6753  270.0677 C   0  0  0  0  0  0
   94.0753   53.5939  269.5053 C   0  0  0  0  0  0
   94.7747   53.1860  268.3528 C   0  0  0  0  0  0
   95.4979   53.8534  267.9085 H   0  0  0  0  0  0
   94.5320   51.9321  267.7597 C   0  0  0  0  0  0
   95.0708   51.6484  266.8663 H   0  0  0  0  0  0
   94.0331   54.7750  270.3088 C   0  0  0  0  0  0
   94.6023   55.6771  270.1454 H   0  0  0  0  0  0
   93.1718   54.5298  271.3395 C   0  0  0  0  0  0
   92.8970   55.1714  272.1601 H   0  0  0  0  0  0
   92.6222   53.2668  271.2058 N   0  0  0  0  0  0
   91.6569   52.6729  272.1096 C   0  0  0  0  0  0
   91.9727   51.6640  272.3780 H   0  0  0  0  0  0
   91.5739   53.2651  273.0208 H   0  0  0  0  0  0
   90.6809   52.6255  271.6275 H   0  0  0  0  0  0
   94.2163   48.7285  267.5600 C   0  0  0  0  0  0
   95.4846   48.9037  268.0136 N   0  0  0  0  0  0
   96.3734   47.9113  267.8175 C   0  0  0  0  0  0
   97.3873   48.0839  268.1470 H   0  0  0  0  0  0
  1  2  1  0  0  0
  2 44  1  0  0  0
  2  3  2  0  0  0
  3  4  1  0  0  0
  4 42  1  0  0  0
  4  5  2  0  0  0
  5  6  1  0  0  0
  5  7  1  0  0  0
  7  8  1  0  0  0
  7 21  2  0  0  0
  8  9  1  0  0  0
  8 10  1  0  0  0
 10 19  1  0  0  0
 10 11  2  0  0  0
 11 12  1  0  0  0
 11 13  1  0  0  0
 13 14  1  0  0  0
 13 15  2  0  0  0
 15 16  1  0  0  0
 15 17  1  0  0  0
 17 18  1  0  0  0
 17 19  2  0  0  0
 19 20  1  0  0  0
 21 22  1  0  0  0
 21 23  1  0  0  0
 23 24  1  0  0  0
 23 42  2  0  0  0
 24 31  1  0  0  0
 24 25  2  0  0  0
 25 26  1  0  0  0
 25 27  1  0  0  0
 27 37  1  0  0  0
 27 28  2  0  0  0
 28 29  1  0  0  0
 28 33  1  0  0  0
 29 30  1  0  0  0
 29 31  2  0  0  0
 31 32  1  0  0  0
 33 34  1  0  0  0
 33 35  2  0  0  0
 35 36  1  0  0  0
 35 37  1  0  0  0
 37 38  1  0  0  0
 38 39  1  0  0  0
 38 40  1  0  0  0
 38 41  1  0  0  0
 42 43  1  0  0  0
 43 44  2  0  0  0
 44 45  1  0  0  0
M  END
> <s_m_source_file>
ligprep_pfkfb3.smi

> <i_m_source_file_index>
1

> <i_lp_mmshare_version>
53161

> <i_f3d_flags>
0

> <s_epik_input>
W0NIM11uMVtjSF1bY0hdYyhjMTIpW2NIXVtjSF1jKFtjSF0yKS1jKGMoYzM0KW5bY0hdW2NIXW4zKVtjSF1jKFtjSF00KVtOSF1jNVtjSF1bY0hdW2NIXVtjSF1bY0hdNQ==

> <s_epik_cmdline>
J2VwaWtfcHl0aG9uJywgJy1waHQnLCAnMC4wJywgJy1waCcsICc3LjQnLCAnLXRuJywgJzgnLCAnLW1hJywgJzUwMCcsICctaW1hZScsICc8aW5maWxlLm1hZT4nLCAnLW9tYWUnLCAnPG91dGZpbGUubWFlPic=

> <r_lp_tautomer_probability>
1

> <r_epik_Ionization_Penalty>
0

> <r_epik_Ionization_Penalty_Charging>
0

> <r_epik_Ionization_Penalty_Neutral>
0

> <r_epik_State_Penalty>
-0

> <r_epik_Charging_Adjusted_Penalty>
0

> <i_epik_Tot_Q>
0

> <i_epik_Tot_abs_Q>
0

> <s_lp_Force_Field>
S-OPLS

> <r_lp_Energy>
53.6995

> <b_lp_Chiralities_Consistent>
1

> <s_lp_Variant>
lig_19-1

> <s_i_glide_gridfile>
glide-grid_6HVI-PFKFB3

> <i_i_glide_lignum>
1

> <i_i_glide_rotatable_bonds>
3

> <r_i_docking_score>
-11.0582

> <r_i_glide_ligand_efficiency>
-0.409563

> <r_i_glide_ligand_efficiency_sa>
-1.22869

> <r_i_glide_ligand_efficiency_ln>
-2.57417

> <r_i_glide_gscore>
-11.0582

> <r_i_glide_lipo>
-6.04597

> <r_i_glide_hbond>
-0.32

> <r_i_glide_metal>
-0

> <r_i_glide_rewards>
-1.67823

> <r_i_glide_evdw>
-55.9122

> <r_i_glide_ecoul>
-4.56051

> <r_i_glide_erotb>
0.465683

> <r_i_glide_esite>
0

> <r_i_glide_emodel>
-94.9872

> <r_i_glide_energy>
-60.4728

> <r_i_glide_einternal>
0.14952

> <i_i_glide_confnum>
5

> <i_i_glide_posenum>
1

> <r_i_glide_eff_state_penalty>
-0

> <r_i_glide_rmsd>
0.0780265

> <s_glide_core_constrain_type>
snapped_core_restrain
$$$$