lig_224
                    3D
 Schrodinger Suite 2021-1.
 37 39  0  0  1  0            999 V2000
   28.2999    2.0126  -11.7964 H   0  0  0  0  0  0
   27.6253    1.6731  -11.2166 O   0  0  0  0  0  0
   27.2333    0.4039  -11.6936 C   0  0  1  0  0  0
   28.0807   -0.2756  -11.7134 H   0  0  0  0  0  0
   26.0814   -0.1032  -10.8647 C   0  0  0  0  0  0
   24.8780    0.0651  -11.5447 C   0  0  0  0  0  0
   23.6481   -0.2967  -10.9700 C   0  0  0  0  0  0
   22.5239   -0.1284  -11.7332 O   0  0  0  0  0  0
   21.2976   -0.4172  -11.2067 C   0  0  0  0  0  0
   20.6708   -1.6257  -11.0871 C   0  0  0  0  0  0
   20.9947   -2.6235  -11.3472 H   0  0  0  0  0  0
   19.4188   -1.3673  -10.5681 N   0  0  0  0  0  0
   18.3475   -2.2910  -10.3003 C   0  0  0  0  0  0
   18.7473   -3.3093  -10.2842 H   0  0  0  0  0  0
   17.8907   -2.0515   -9.3357 H   0  0  0  0  0  0
   17.5820   -2.1992  -11.0755 H   0  0  0  0  0  0
   19.2243   -0.0537  -10.3248 N   0  0  0  0  0  0
   20.3501    0.5213  -10.7048 C   0  0  0  0  0  0
   20.4271    1.5946  -10.6355 H   0  0  0  0  0  0
   23.6542   -0.7967   -9.6415 C   0  0  0  0  0  0
   22.7321   -1.0674   -9.1491 H   0  0  0  0  0  0
   24.8715   -0.9606   -8.9389 C   0  0  0  0  0  0
   24.8546   -1.3421   -7.9308 H   0  0  0  0  0  0
   26.1008   -0.6458   -9.5588 C   0  0  0  0  0  0
   27.6249   -0.9142   -8.6425 S   0  0  0  0  0  0
   27.3487   -1.9081   -7.5935 O   0  0  0  0  0  0
   28.7200   -1.1980   -9.5764 O   0  0  0  0  0  0
   27.9820    0.6887   -7.8219 C   0  0  0  0  0  0
   29.2748    0.9228   -7.9396 F   0  0  0  0  0  0
   27.2923    1.6746   -8.3851 F   0  0  0  0  0  0
   27.6265    0.5903   -6.5391 F   0  0  0  0  0  0
   25.0889    0.6402  -12.9213 C   0  0  0  0  0  0
   24.7630    1.6794  -12.9258 H   0  0  0  0  0  0
   24.5364    0.0921  -13.6826 H   0  0  0  0  0  0
   26.6164    0.5464  -13.1102 C   0  0  0  0  0  0
   27.1219    1.5483  -13.8344 F   0  0  0  0  0  0
   26.8585   -0.5924  -13.7681 F   0  0  0  0  0  0
  1  2  1  0  0  0
  2  3  1  0  0  0
  3 35  1  0  0  0
  3  4  1  0  0  0
  3  5  1  0  0  0
  5 24  1  0  0  0
  5  6  2  0  0  0
  6  7  1  0  0  0
  6 32  1  0  0  0
  7  8  1  0  0  0
  7 20  2  0  0  0
  8  9  1  0  0  0
  9 18  1  0  0  0
  9 10  2  0  0  0
 10 11  1  0  0  0
 10 12  1  0  0  0
 12 13  1  0  0  0
 12 17  1  0  0  0
 13 14  1  0  0  0
 13 15  1  0  0  0
 13 16  1  0  0  0
 17 18  2  0  0  0
 18 19  1  0  0  0
 20 21  1  0  0  0
 20 22  1  0  0  0
 22 23  1  0  0  0
 22 24  2  0  0  0
 24 25  1  0  0  0
 25 26  2  0  0  0
 25 27  2  0  0  0
 25 28  1  0  0  0
 28 29  1  0  0  0
 28 30  1  0  0  0
 28 31  1  0  0  0
 32 33  1  0  0  0
 32 34  1  0  0  0
 32 35  1  0  0  0
 35 36  1  0  0  0
 35 37  1  0  0  0
M  END
> <s_m_source_file>
ligprep_hif2a.smi

> <i_m_source_file_index>
12

> <i_lp_mmshare_version>
53161

> <i_f3d_flags>
0

> <s_epik_input>
RkMoRikoRilTKD1PKSg9TyljMVtjSF1bY0hdYyhjKGMxMilbQ0gyXUMoRikoRilbQ0BIXTJbT0hdKU9jM1tjSF1uKFtDSDNdKW5bY0hdMw==

> <s_epik_cmdline>
J2VwaWtfcHl0aG9uJywgJy1waHQnLCAnMC4wJywgJy1waCcsICc3LjQnLCAnLXRuJywgJzgnLCAnLW1hJywgJzUwMCcsICctaW1hZScsICc8aW5maWxlLm1hZT4nLCAnLW9tYWUnLCAnPG91dGZpbGUubWFlPic=

> <r_lp_tautomer_probability>
1

> <r_epik_Ionization_Penalty>
0.0012

> <r_epik_Ionization_Penalty_Charging>
0

> <r_epik_Ionization_Penalty_Neutral>
0.0012

> <r_epik_State_Penalty>
-0

> <r_epik_Charging_Adjusted_Penalty>
0

> <i_epik_Tot_Q>
0

> <i_epik_Tot_abs_Q>
0

> <s_lp_Force_Field>
S-OPLS

> <r_lp_Energy>
27.0687

> <b_lp_Chiralities_Consistent>
1

> <s_lp_Variant>
lig_224-1

> <s_i_glide_gridfile>
glide-grid_5TBM-HIF2a

> <i_i_glide_lignum>
12

> <i_i_glide_rotatable_bonds>
5

> <r_i_docking_score>
-9.74467

> <r_i_glide_ligand_efficiency>
-0.374795

> <r_i_glide_ligand_efficiency_sa>
-1.11033

> <r_i_glide_ligand_efficiency_ln>
-2.2885

> <r_i_glide_gscore>
-9.74467

> <r_i_glide_lipo>
-4.08646

> <r_i_glide_hbond>
0

> <r_i_glide_metal>
-0

> <r_i_glide_rewards>
-2.57398

> <r_i_glide_evdw>
-47.786

> <r_i_glide_ecoul>
-8.74756

> <r_i_glide_erotb>
0.617196

> <r_i_glide_esite>
0

> <r_i_glide_emodel>
-332.592

> <r_i_glide_energy>
-56.5335

> <r_i_glide_einternal>
0.460168

> <i_i_glide_confnum>
309

> <i_i_glide_posenum>
377

> <r_i_glide_eff_state_penalty>
-0

> <r_i_glide_rmsd>
0.0971789

> <s_glide_core_constrain_type>
snapped_core_restrain
$$$$