lig_CAT-13o
                    3D
 Schrodinger Suite 2021-1.
 41 44  0  0  1  0            999 V2000
   18.3179    8.8075   20.0802 H   0  0  0  0  0  0
   18.9364    9.6857   20.1966 C   0  0  0  0  0  0
   18.6415   10.9749   19.8396 C   0  0  0  0  0  0
   17.7418   11.3557   19.3810 H   0  0  0  0  0  0
   19.9489   12.0600   20.2232 S   0  0  0  0  0  0
   20.8787   10.7031   20.8663 C   0  0  0  0  0  0
   22.2901   10.8131   21.4291 C   0  0  1  0  0  0
   23.4058   10.9624   20.3797 C   0  0  0  0  0  0
   23.1259   11.1154   19.0011 C   0  0  0  0  0  0
   22.1133   11.1241   18.6294 H   0  0  0  0  0  0
   24.1717   11.2633   18.0718 C   0  0  0  0  0  0
   23.9469   11.3904   17.0225 H   0  0  0  0  0  0
   25.5084   11.2593   18.5079 C   0  0  0  0  0  0
   26.3032   11.3942   17.7891 H   0  0  0  0  0  0
   25.8150   11.0833   19.8715 C   0  0  0  0  0  0
   27.2033   11.1421   20.3428 C   0  0  0  0  0  0
   27.8967   12.3663   20.2308 C   0  0  0  0  0  0
   27.4052   13.2200   19.7850 H   0  0  0  0  0  0
   29.2105   12.5013   20.7141 C   0  0  0  0  0  0
   30.0113   14.0253   20.6025 Cl  0  0  0  0  0  0
   29.8595   11.3949   21.2920 C   0  0  0  0  0  0
   30.8748   11.4870   21.6499 H   0  0  0  0  0  0
   29.1843   10.1641   21.3907 C   0  0  0  0  0  0
   29.6887    9.3048   21.8019 H   0  0  0  0  0  0
   27.8589   10.0430   20.9340 C   0  0  0  0  0  0
   27.3495    9.0998   21.0403 H   0  0  0  0  0  0
   24.7595   10.9313   20.7899 C   0  0  0  0  0  0
   24.9979   10.8130   21.8354 H   0  0  0  0  0  0
   22.3308   11.9380   22.4853 C   0  0  0  0  0  0
   22.2282   13.1413   22.2358 O   0  0  0  0  0  0
   22.5175   11.3950   23.6854 N   0  0  0  0  0  0
   22.6777   12.0735   24.9703 C   0  0  0  0  0  0
   23.7174   12.0237   25.2945 H   0  0  0  0  0  0
   22.3984   13.1255   24.9040 H   0  0  0  0  0  0
   22.0549   11.6134   25.7389 H   0  0  0  0  0  0
   22.6532   10.0388   23.5064 C   0  0  0  0  0  0
   22.8877    9.2429   24.6018 N   0  0  0  0  0  0
   22.9940    8.2370   24.5019 H   0  0  0  0  0  0
   22.5596    9.6610   22.2840 N   0  0  0  0  0  0
   20.2031    9.5491   20.7635 N   0  0  0  0  0  0
   22.9943    9.5467   25.5631 H   0  0  0  0  0  0
  1  2  1  0  0  0
  2 40  1  0  0  0
  2  3  2  0  0  0
  3  4  1  0  0  0
  3  5  1  0  0  0
  5  6  1  0  0  0
  6 40  2  0  0  0
  6  7  1  0  0  0
  7 39  1  0  0  0
  7 29  1  0  0  0
  7  8  1  0  0  0
  8 27  1  0  0  0
  8  9  2  0  0  0
  9 10  1  0  0  0
  9 11  1  0  0  0
 11 12  1  0  0  0
 11 13  2  0  0  0
 13 14  1  0  0  0
 13 15  1  0  0  0
 15 16  1  0  0  0
 15 27  2  0  0  0
 16 25  1  0  0  0
 16 17  2  0  0  0
 17 18  1  0  0  0
 17 19  1  0  0  0
 19 20  1  0  0  0
 19 21  2  0  0  0
 21 22  1  0  0  0
 21 23  1  0  0  0
 23 24  1  0  0  0
 23 25  2  0  0  0
 25 26  1  0  0  0
 27 28  1  0  0  0
 29 30  2  0  0  0
 29 31  1  0  0  0
 31 32  1  0  0  0
 31 36  1  0  0  0
 32 33  1  0  0  0
 32 34  1  0  0  0
 32 35  1  0  0  0
 36 37  1  0  0  0
 36 39  2  0  0  0
 37 38  1  0  0  0
 37 41  1  0  0  0
M  END
> <s_m_source_file>
ligprep_bace.smi

> <i_m_source_file_index>
14

> <i_lp_mmshare_version>
53161

> <i_f3d_flags>
0

> <s_epik_input>
bjFbY0hdW2NIXXNjMVtDQF0yKEMoPU8pTihbQ0gzXSlDKD1OMilbTkgyXSljM1tjSF1bY0hdW2NIXWMoW2NIXTMpLWM0W2NIXWMoQ2wpW2NIXVtjSF1bY0hdNA==

> <s_epik_cmdline>
J2VwaWtfcHl0aG9uJywgJy1waHQnLCAnMC4wJywgJy1waCcsICc3LjQnLCAnLXRuJywgJzgnLCAnLW1hJywgJzUwMCcsICctaW1hZScsICc8aW5maWxlLm1hZT4nLCAnLW9tYWUnLCAnPG91dGZpbGUubWFlPic=

> <r_lp_tautomer_probability>
1

> <r_epik_Ionization_Penalty>
0.0874

> <r_epik_Ionization_Penalty_Charging>
0

> <r_epik_Ionization_Penalty_Neutral>
0.0874

> <r_epik_State_Penalty>
-0

> <r_epik_Charging_Adjusted_Penalty>
0

> <i_epik_Tot_Q>
0

> <i_epik_Tot_abs_Q>
0

> <s_epik_Chemistry_Notes>
This compound has an imine and may undergo hydrolysis.

> <s_lp_Force_Field>
S-OPLS

> <r_lp_Energy>
40.6265

> <b_lp_Chiralities_Consistent>
1

> <s_lp_Variant>
lig_CAT-13o-1

> <s_i_glide_gridfile>
glide-grid_4DJW-BACE

> <i_i_glide_lignum>
14

> <i_i_glide_rotatable_bonds>
3

> <r_i_docking_score>
-6.23065

> <r_i_glide_ligand_efficiency>
-0.23964

> <r_i_glide_ligand_efficiency_sa>
-0.709934

> <r_i_glide_ligand_efficiency_ln>
-1.46325

> <r_i_glide_gscore>
-6.23065

> <r_i_glide_lipo>
-2.82269

> <r_i_glide_hbond>
-0.167674

> <r_i_glide_metal>
-0

> <r_i_glide_rewards>
-1.0692

> <r_i_glide_evdw>
-43.9935

> <r_i_glide_ecoul>
-1.67132

> <r_i_glide_erotb>
0.397568

> <r_i_glide_esite>
-0.118285

> <r_i_glide_emodel>
-59.3004

> <r_i_glide_energy>
-45.6648

> <r_i_glide_einternal>
0.265926

> <i_i_glide_confnum>
16

> <i_i_glide_posenum>
80

> <r_i_glide_eff_state_penalty>
-0

> <r_i_glide_rmsd>
0.0835791

> <s_glide_core_constrain_type>
snapped_core_restrain
$$$$