lig_8414
                    3D
 Schrodinger Suite 2021-1.
 76 83  0  0  1  0            999 V2000
  -17.9906  -10.1015   33.1938 H   0  0  0  0  0  0
  -18.4619  -10.8846   33.7905 C   0  0  0  0  0  0
  -18.4829  -10.8147   35.1378 C   0  0  0  0  0  0
  -17.8221   -9.7041   35.8490 C   0  0  0  0  0  0
  -17.1396   -9.8483   37.0767 C   0  0  0  0  0  0
  -17.0081  -10.8160   37.5387 H   0  0  0  0  0  0
  -16.6379   -8.8072   37.7771 N   0  0  0  0  0  0
  -16.7458   -7.5611   37.2770 C   0  0  0  0  0  0
  -16.3276   -6.5148   38.1202 N   0  0  0  0  0  0
  -15.0382   -6.7005   38.7714 C   0  0  0  0  0  0
  -15.0630   -6.0546   39.6470 H   0  0  0  0  0  0
  -14.8873   -7.7138   39.1370 H   0  0  0  0  0  0
  -13.8978   -6.3010   37.8132 C   0  0  0  0  0  0
  -13.8652   -6.9945   36.9674 H   0  0  0  0  0  0
  -12.9324   -6.3440   38.3171 H   0  0  0  0  0  0
  -14.1050   -4.9347   37.2997 N   0  3  0  0  0  0
  -13.4554   -4.6809   36.5616 H   0  0  0  0  0  0
  -15.4538   -4.6626   36.7847 C   0  0  0  0  0  0
  -15.5733   -5.1201   35.8015 H   0  0  0  0  0  0
  -15.4739   -3.5857   36.6305 H   0  0  0  0  0  0
  -16.5439   -5.1206   37.7567 C   0  0  0  0  0  0
  -17.5246   -4.9215   37.3393 H   0  0  0  0  0  0
  -16.4840   -4.5036   38.6530 H   0  0  0  0  0  0
  -17.2745   -7.3343   35.9891 C   0  0  0  0  0  0
  -17.3620   -6.3483   35.5527 H   0  0  0  0  0  0
  -17.8047   -8.4150   35.2727 C   0  0  0  0  0  0
  -18.2775   -8.2199   34.3207 H   0  0  0  0  0  0
  -19.0860  -11.8814   35.7591 N   0  0  0  0  0  0
  -19.5721  -13.0229   35.0445 C   0  0  0  0  0  0
  -19.9735  -13.9609   35.9203 N   0  0  0  0  0  0
  -19.8723  -13.3777   37.1923 C   0  0  0  0  0  0
  -20.1559  -14.0148   38.4330 N   0  0  0  0  0  0
  -21.4743  -14.6110   38.6662 C   0  0  0  0  0  0
  -21.4859  -15.6995   38.5877 H   0  0  0  0  0  0
  -22.2785  -14.1452   38.0979 H   0  0  0  0  0  0
  -21.3568  -14.0474   40.1051 C   0  0  0  0  0  0
  -20.7840  -14.7296   40.7358 H   0  0  0  0  0  0
  -22.5378  -13.5391   40.9312 C   0  0  0  0  0  0
  -22.7497  -12.2000   41.0036 N   0  3  0  0  0  0
  -23.8299  -11.6354   41.5669 C   0  0  0  0  0  0
  -24.0099  -10.2346   41.5036 C   0  0  0  0  0  0
  -23.2741   -9.6025   41.0243 H   0  0  0  0  0  0
  -25.1673   -9.6583   42.0495 C   0  0  0  0  0  0
  -25.3136   -8.5851   41.9964 H   0  0  0  0  0  0
  -26.1404  -10.4710   42.6557 C   0  0  0  0  0  0
  -27.0347  -10.0128   43.0662 H   0  0  0  0  0  0
  -25.9680  -11.8723   42.7308 C   0  0  0  0  0  0
  -26.7318  -12.4773   43.1969 H   0  0  0  0  0  0
  -24.8023  -12.4542   42.1854 C   0  0  0  0  0  0
  -24.5893  -13.8501   42.2253 C   0  0  0  0  0  0
  -25.3019  -14.5184   42.6939 H   0  0  0  0  0  0
  -23.4446  -14.3971   41.6020 C   0  0  0  0  0  0
  -23.2819  -15.4658   41.5785 H   0  0  0  0  0  0
  -20.4098  -13.0404   39.4841 C   0  0  0  0  0  0
  -20.9186  -12.1502   39.1330 H   0  0  0  0  0  0
  -19.5484  -12.7707   40.1006 H   0  0  0  0  0  0
  -19.3291  -12.1307   37.0876 C   0  0  0  0  0  0
  -19.0944  -11.3893   37.8332 H   0  0  0  0  0  0
  -19.4867  -12.9435   33.6062 C   0  0  0  0  0  0
  -19.9263  -13.9782   32.7506 N   0  0  0  0  0  0
  -21.2174  -14.6372   32.9817 C   0  0  0  0  0  0
  -21.4593  -14.6991   34.0368 H   0  0  0  0  0  0
  -21.9770  -14.0267   32.5233 H   0  0  0  0  0  0
  -21.2102  -16.0378   32.3557 C   0  0  0  0  0  0
  -22.2054  -16.4683   32.4332 H   0  0  0  0  0  0
  -20.5346  -16.7107   32.8798 H   0  0  0  0  0  0
  -20.8448  -15.9625   30.9805 O   0  0  0  0  0  0
  -19.5285  -15.4401   30.8118 C   0  0  0  0  0  0
  -19.2630  -15.4448   29.7593 H   0  0  0  0  0  0
  -18.8094  -16.0862   31.3190 H   0  0  0  0  0  0
  -19.4707  -14.0091   31.3546 C   0  0  0  0  0  0
  -20.0969  -13.3419   30.7655 H   0  0  0  0  0  0
  -18.4441  -13.6465   31.2978 H   0  0  0  0  0  0
  -18.9682  -11.8882   33.0357 N   0  0  0  0  0  0
  -13.9578   -4.2715   38.0534 H   0  0  0  0  0  0
  -22.0839  -11.5935   40.5266 H   0  0  0  0  0  0
  1  2  1  0  0  0
  2 74  1  0  0  0
  2  3  2  0  0  0
  3  4  1  0  0  0
  3 28  1  0  0  0
  4 26  1  0  0  0
  4  5  2  0  0  0
  5  6  1  0  0  0
  5  7  1  0  0  0
  7  8  2  0  0  0
  8  9  1  0  0  0
  8 24  1  0  0  0
  9 21  1  0  0  0
  9 10  1  0  0  0
 10 11  1  0  0  0
 10 12  1  0  0  0
 10 13  1  0  0  0
 13 14  1  0  0  0
 13 15  1  0  0  0
 13 16  1  0  0  0
 16 17  1  0  0  0
 16 18  1  0  0  0
 16 75  1  0  0  0
 18 19  1  0  0  0
 18 20  1  0  0  0
 18 21  1  0  0  0
 21 22  1  0  0  0
 21 23  1  0  0  0
 24 25  1  0  0  0
 24 26  2  0  0  0
 26 27  1  0  0  0
 28 57  1  0  0  0
 28 29  1  0  0  0
 29 30  2  0  0  0
 29 59  1  0  0  0
 30 31  1  0  0  0
 31 32  1  0  0  0
 31 57  2  0  0  0
 32 54  1  0  0  0
 32 33  1  0  0  0
 33 34  1  0  0  0
 33 35  1  0  0  0
 33 36  1  0  0  0
 36 37  1  0  0  0
 36 38  1  0  0  0
 36 54  1  0  0  0
 38 52  1  0  0  0
 38 39  2  0  0  0
 39 40  1  0  0  0
 39 76  1  0  0  0
 40 49  2  0  0  0
 40 41  1  0  0  0
 41 42  1  0  0  0
 41 43  2  0  0  0
 43 44  1  0  0  0
 43 45  1  0  0  0
 45 46  1  0  0  0
 45 47  2  0  0  0
 47 48  1  0  0  0
 47 49  1  0  0  0
 49 50  1  0  0  0
 50 51  1  0  0  0
 50 52  2  0  0  0
 52 53  1  0  0  0
 54 55  1  0  0  0
 54 56  1  0  0  0
 57 58  1  0  0  0
 59 60  1  0  0  0
 59 74  2  0  0  0
 60 71  1  0  0  0
 60 61  1  0  0  0
 61 62  1  0  0  0
 61 63  1  0  0  0
 61 64  1  0  0  0
 64 65  1  0  0  0
 64 66  1  0  0  0
 64 67  1  0  0  0
 67 68  1  0  0  0
 68 69  1  0  0  0
 68 70  1  0  0  0
 68 71  1  0  0  0
 71 72  1  0  0  0
 71 73  1  0  0  0
M  CHG  2  16   1  39   1
M  END
> <s_m_source_file>
ligprep_pde10.smi

> <i_m_source_file_index>
33

> <i_lp_mmshare_version>
53161

> <i_f3d_flags>
0

> <s_epik_input>
W0NIMl0xW0NIMl1bTkhdW0NIMl1bQ0gyXU4xYyhbY0hdW2NIXTIpbltjSF1jMi1jM1tjSF1uYyhONFtDSDJdW0NIMl1PW0NIMl1bQ0gyXTQpYyhuMzUpbmMoW2NIXTUpTjZbQ0gyXVtDSF0oW0NIMl02KWMobjcpW2NIXVtjSF1jKGM3OClbY0hdW2NIXVtjSF1bY0hdOA==

> <s_epik_cmdline>
J2VwaWtfcHl0aG9uJywgJy1waHQnLCAnMC4wJywgJy1waCcsICc3LjQnLCAnLXRuJywgJzgnLCAnLW1hJywgJzUwMCcsICctaW1hZScsICc8aW5maWxlLm1hZT4nLCAnLW9tYWUnLCAnPG91dGZpbGUubWFlPic=

> <r_lp_tautomer_probability>
1

> <r_epik_Ionization_Penalty>
0.4286

> <r_epik_Ionization_Penalty_Charging>
0.4267

> <r_epik_Ionization_Penalty_Neutral>
0.0019

> <r_epik_State_Penalty>
0.4018

> <r_epik_Charging_Adjusted_Penalty>
0.828496

> <i_epik_Tot_Q>
2

> <i_epik_Tot_abs_Q>
2

> <s_lp_Force_Field>
S-OPLS

> <r_lp_Energy>
88.8401

> <b_lp_Chiralities_Consistent>
1

> <s_lp_Variant>
lig_8414-1

> <s_i_glide_gridfile>
glide-grid_4BBX-PDE10

> <i_i_glide_lignum>
34

> <i_i_glide_rotatable_bonds>
5

> <r_i_docking_score>
-7.18415

> <r_i_glide_ligand_efficiency>
-0.175223

> <r_i_glide_ligand_efficiency_sa>
-0.604207

> <r_i_glide_ligand_efficiency_ln>
-1.52414

> <r_i_glide_gscore>
-7.58595

> <r_i_glide_lipo>
-4.91106

> <r_i_glide_hbond>
-0.384159

> <r_i_glide_metal>
-0

> <r_i_glide_rewards>
-0.14695

> <r_i_glide_evdw>
-47.4434

> <r_i_glide_ecoul>
-0.348886

> <r_i_glide_erotb>
0.343038

> <r_i_glide_esite>
-0.0623183

> <r_i_glide_emodel>
-66.1576

> <r_i_glide_energy>
-47.7922

> <r_i_glide_einternal>
9.38787

> <i_i_glide_confnum>
359

> <i_i_glide_posenum>
109

> <r_i_glide_eff_state_penalty>
0.4018

> <r_i_glide_rmsd>
0.104394

> <s_glide_core_constrain_type>
snapped_core_restrain
$$$$