lig_39
                    3D
 Schrodinger Suite 2021-1.
 44 47  0  0  1  0            999 V2000
   29.4928   19.6040   10.6670 H   0  0  0  0  0  0
   28.9677   18.7199   10.3309 C   0  0  0  0  0  0
   27.7300   18.5441   10.7825 N   0  0  0  0  0  0
   27.0815   17.4372   10.3656 C   0  0  0  0  0  0
   26.0805   17.2942   10.7449 H   0  0  0  0  0  0
   27.6634   16.4977    9.4876 C   0  0  0  0  0  0
   26.9565   15.2917    9.0158 C   0  0  0  0  0  0
   27.6507   14.0939    8.7563 C   0  0  0  0  0  0
   28.7157   14.0398    8.9071 H   0  0  0  0  0  0
   26.9728   12.9461    8.3151 C   0  0  0  0  0  0
   27.5260   12.0330    8.1483 H   0  0  0  0  0  0
   25.5815   12.9662    8.1107 C   0  0  0  0  0  0
   24.9774   11.7967    7.7071 O   0  0  0  0  0  0
   23.5707   11.6727    7.9300 C   0  0  0  0  0  0
   23.3116   11.4301    9.4353 C   0  0  0  0  0  0
   22.2455   11.3665    9.6458 H   0  0  0  0  0  0
   23.7627   10.4903    9.7540 H   0  0  0  0  0  0
   23.7237   12.2117   10.0719 H   0  0  0  0  0  0
   23.1393   10.4331    7.1332 C   0  0  0  0  0  0
   22.0718   10.2382    7.2543 H   0  0  0  0  0  0
   23.3269   10.5643    6.0692 H   0  0  0  0  0  0
   23.6757    9.5438    7.4510 H   0  0  0  0  0  0
   22.8490   12.9128    7.3794 C   0  0  0  0  0  0
   21.7719   12.8222    7.4857 H   0  0  0  0  0  0
   23.0433   12.9450    6.3035 H   0  0  0  0  0  0
   23.3620   14.2294    8.0090 C   0  0  1  0  0  0
   22.9925   15.4353    7.1315 C   0  0  0  0  0  0
   23.4214   15.6139    5.9874 O   0  0  0  0  0  0
   22.1525   16.2191    7.7989 N   0  0  0  0  0  0
   21.5882   17.4997    7.3826 C   0  0  0  0  0  0
   21.9401   17.8157    6.3986 H   0  0  0  0  0  0
   20.4992   17.4537    7.3654 H   0  0  0  0  0  0
   21.8780   18.2488    8.1101 H   0  0  0  0  0  0
   21.9487   15.6435    9.0336 C   0  0  0  0  0  0
   21.1178   16.2814    9.9312 N   0  0  0  0  0  0
   21.0619   15.9926   10.9120 H   0  0  0  0  0  0
   22.5972   14.5463    9.2072 N   0  0  0  0  0  0
   24.8653   14.1727    8.3132 C   0  0  0  0  0  0
   25.5603   15.3125    8.7895 C   0  0  0  0  0  0
   25.0041   16.2237    8.9730 H   0  0  0  0  0  0
   28.9871   16.8043    9.0937 C   0  0  0  0  0  0
   29.5408   16.1574    8.4287 H   0  0  0  0  0  0
   29.6364   17.9104    9.5148 N   0  0  0  0  0  0
   20.7002   17.1973    9.8009 H   0  0  0  0  0  0
  1  2  1  0  0  0
  2 43  1  0  0  0
  2  3  2  0  0  0
  3  4  1  0  0  0
  4  5  1  0  0  0
  4  6  2  0  0  0
  6  7  1  0  0  0
  6 41  1  0  0  0
  7 39  1  0  0  0
  7  8  2  0  0  0
  8  9  1  0  0  0
  8 10  1  0  0  0
 10 11  1  0  0  0
 10 12  2  0  0  0
 12 38  1  0  0  0
 12 13  1  0  0  0
 13 14  1  0  0  0
 14 15  1  0  0  0
 14 19  1  0  0  0
 14 23  1  0  0  0
 15 16  1  0  0  0
 15 17  1  0  0  0
 15 18  1  0  0  0
 19 20  1  0  0  0
 19 21  1  0  0  0
 19 22  1  0  0  0
 23 24  1  0  0  0
 23 25  1  0  0  0
 23 26  1  0  0  0
 26 37  1  0  0  0
 26 27  1  0  0  0
 26 38  1  0  0  0
 27 28  2  0  0  0
 27 29  1  0  0  0
 29 30  1  0  0  0
 29 34  1  0  0  0
 30 31  1  0  0  0
 30 32  1  0  0  0
 30 33  1  0  0  0
 34 35  1  0  0  0
 34 37  2  0  0  0
 35 36  1  0  0  0
 35 44  1  0  0  0
 38 39  2  0  0  0
 39 40  1  0  0  0
 41 42  1  0  0  0
 41 43  2  0  0  0
M  END
> <s_m_source_file>
ligprep_bace_hunt.smi

> <i_m_source_file_index>
30

> <i_lp_mmshare_version>
53161

> <i_f3d_flags>
0

> <s_epik_input>
W2NIXTFuW2NIXW5bY0hdYzEtYyhbY0hdMilbY0hdW2NIXWMoT0MoW0NIM10pKFtDSDNdKVtDSDJdMyljMltDQEBdMzRDKD1PKU4oW0NIM10pQyg9TjQpW05IMl0=

> <s_epik_cmdline>
J2VwaWtfcHl0aG9uJywgJy1waHQnLCAnMC4wJywgJy1waCcsICc3LjQnLCAnLXRuJywgJzgnLCAnLW1hJywgJzUwMCcsICctaW1hZScsICc8aW5maWxlLm1hZT4nLCAnLW9tYWUnLCAnPG91dGZpbGUubWFlPic=

> <r_lp_tautomer_probability>
1

> <r_epik_Ionization_Penalty>
1.0455

> <r_epik_Ionization_Penalty_Charging>
0

> <r_epik_Ionization_Penalty_Neutral>
1.0455

> <r_epik_State_Penalty>
-0

> <r_epik_Charging_Adjusted_Penalty>
0

> <i_epik_Tot_Q>
0

> <i_epik_Tot_abs_Q>
0

> <s_epik_Chemistry_Notes>
This compound has an imine and may undergo hydrolysis.

> <s_lp_Force_Field>
S-OPLS

> <r_lp_Energy>
36.1985

> <b_lp_Chiralities_Consistent>
1

> <s_lp_Variant>
lig_39-1

> <s_i_glide_gridfile>
glide-grid_4JPC-BACE_HUNT

> <i_i_glide_lignum>
30

> <i_i_glide_rotatable_bonds>
1

> <r_i_docking_score>
-6.45342

> <r_i_glide_ligand_efficiency>
-0.258137

> <r_i_glide_ligand_efficiency_sa>
-0.754796

> <r_i_glide_ligand_efficiency_ln>
-1.52965

> <r_i_glide_gscore>
-6.45342

> <r_i_glide_lipo>
-1.6534

> <r_i_glide_hbond>
-0.236587

> <r_i_glide_metal>
-0

> <r_i_glide_rewards>
-1.8266

> <r_i_glide_evdw>
-38.0808

> <r_i_glide_ecoul>
-5.67689

> <r_i_glide_erotb>
0.166034

> <r_i_glide_esite>
-0.147291

> <r_i_glide_emodel>
-61.9464

> <r_i_glide_energy>
-43.7577

> <r_i_glide_einternal>
0.112853

> <i_i_glide_confnum>
15

> <i_i_glide_posenum>
3

> <r_i_glide_eff_state_penalty>
-0

> <r_i_glide_rmsd>
0.0938286

> <s_glide_core_constrain_type>
snapped_core_restrain
$$$$