lig_39
                    3D
 Schrodinger Suite 2021-1.
 53 57  0  0  1  0            999 V2000
   -2.1472   14.5256   -7.5880 H   0  0  0  0  0  0
   -1.6040   13.6956   -7.1561 C   0  0  0  0  0  0
   -0.3771   13.8934   -6.6897 N   0  0  0  0  0  0
    0.0143   12.6859   -6.2102 N   0  0  0  0  0  0
    1.3123   12.5354   -5.5866 C   0  0  0  0  0  0
    1.2032   12.0145   -4.6338 H   0  0  0  0  0  0
    1.9649   11.9481   -6.2331 H   0  0  0  0  0  0
    1.7678   13.5111   -5.4022 H   0  0  0  0  0  0
   -0.9551   11.7218   -6.3851 C   0  0  0  0  0  0
   -0.8205   10.6996   -6.0628 H   0  0  0  0  0  0
   -2.0186   12.3459   -6.9658 C   0  0  0  0  0  0
   -3.3246   11.7503   -7.2827 C   0  0  0  0  0  0
   -4.5176   12.4517   -7.0028 C   0  0  0  0  0  0
   -4.4722   13.4443   -6.5792 H   0  0  0  0  0  0
   -5.7723   11.8511   -7.2207 C   0  0  0  0  0  0
   -6.6726   12.3964   -6.9817 H   0  0  0  0  0  0
   -5.8540   10.5502   -7.7599 C   0  0  0  0  0  0
   -7.2058    9.8892   -7.9807 C   0  0  0  0  0  0
   -7.9836   10.4933   -7.5102 H   0  0  0  0  0  0
   -7.2045    8.9413   -7.4412 H   0  0  0  0  0  0
   -7.5412    9.6652   -9.4296 C   0  0  0  0  0  0
   -8.1635    8.5811   -9.8222 N   0  0  0  0  0  0
   -8.3423    8.7009  -11.1639 N   0  0  0  0  0  0
   -8.8306    7.9763  -11.6815 H   0  0  0  0  0  0
   -7.8096    9.8625  -11.6895 C   0  0  0  0  0  0
   -7.2663   10.5136  -10.5519 C   0  0  0  0  0  0
   -6.6103   11.7393  -10.7640 C   0  0  0  0  0  0
   -6.1871   12.2519   -9.9116 H   0  0  0  0  0  0
   -6.4178   12.2607  -12.0625 C   0  0  0  0  0  0
   -5.5956   13.5044  -12.2381 C   0  0  0  0  0  0
   -6.0031   14.4142  -12.9610 O   0  0  0  0  0  0
   -4.4577   13.5825  -11.5089 N   0  0  0  0  0  0
   -3.6553   12.4366  -11.0513 C   0  0  0  0  0  0
   -4.0106   11.4868  -11.4508 H   0  0  0  0  0  0
   -3.7171   12.3710   -9.9675 H   0  0  0  0  0  0
   -2.1902   12.6111  -11.4810 C   0  0  0  0  0  0
   -1.5732   11.8227  -11.0489 H   0  0  0  0  0  0
   -2.0860   12.5349  -12.5647 H   0  0  0  0  0  0
   -1.7076   13.8691  -11.0334 O   0  0  0  0  0  0
   -2.4659   14.9550  -11.5508 C   0  0  0  0  0  0
   -1.9928   15.8850  -11.2570 H   0  0  0  0  0  0
   -2.5087   14.9368  -12.6325 H   0  0  0  0  0  0
   -3.9051   14.8599  -11.0534 C   0  0  0  0  0  0
   -3.9339   14.9046   -9.9647 H   0  0  0  0  0  0
   -4.4756   15.7157  -11.4164 H   0  0  0  0  0  0
   -7.0202   11.6200  -13.1688 C   0  0  0  0  0  0
   -6.9220   12.0336  -14.1620 H   0  0  0  0  0  0
   -7.7323   10.4184  -12.9793 C   0  0  0  0  0  0
   -8.1937    9.9222  -13.8186 H   0  0  0  0  0  0
   -4.6673    9.8603   -8.0811 C   0  0  0  0  0  0
   -4.7167    8.8650   -8.4977 H   0  0  0  0  0  0
   -3.4139   10.4530   -7.8326 C   0  0  0  0  0  0
   -2.5135    9.8989   -8.0595 H   0  0  0  0  0  0
  1  2  1  0  0  0
  2 11  1  0  0  0
  2  3  2  0  0  0
  3  4  1  0  0  0
  4  5  1  0  0  0
  4  9  1  0  0  0
  5  6  1  0  0  0
  5  7  1  0  0  0
  5  8  1  0  0  0
  9 10  1  0  0  0
  9 11  2  0  0  0
 11 12  1  0  0  0
 12 52  1  0  0  0
 12 13  2  0  0  0
 13 14  1  0  0  0
 13 15  1  0  0  0
 15 16  1  0  0  0
 15 17  2  0  0  0
 17 18  1  0  0  0
 17 50  1  0  0  0
 18 19  1  0  0  0
 18 20  1  0  0  0
 18 21  1  0  0  0
 21 26  1  0  0  0
 21 22  2  0  0  0
 22 23  1  0  0  0
 23 24  1  0  0  0
 23 25  1  0  0  0
 25 48  1  0  0  0
 25 26  2  0  0  0
 26 27  1  0  0  0
 27 28  1  0  0  0
 27 29  2  0  0  0
 29 30  1  0  0  0
 29 46  1  0  0  0
 30 31  2  0  0  0
 30 32  1  0  0  0
 32 43  1  0  0  0
 32 33  1  0  0  0
 33 34  1  0  0  0
 33 35  1  0  0  0
 33 36  1  0  0  0
 36 37  1  0  0  0
 36 38  1  0  0  0
 36 39  1  0  0  0
 39 40  1  0  0  0
 40 41  1  0  0  0
 40 42  1  0  0  0
 40 43  1  0  0  0
 43 44  1  0  0  0
 43 45  1  0  0  0
 46 47  1  0  0  0
 46 48  2  0  0  0
 48 49  1  0  0  0
 50 51  1  0  0  0
 50 52  2  0  0  0
 52 53  1  0  0  0
M  END
> <s_m_source_file>
ligprep_cdk8.smi

> <i_m_source_file_index>
27

> <i_lp_mmshare_version>
53161

> <i_f3d_flags>
0

> <s_epik_input>
W0NIM11uMW5bY0hdYyhbY0hdMSktYzJbY0hdW2NIXWMoW2NIXVtjSF0yKVtDSDJdYyhuW25IXTMpYyhjMzQpW2NIXWMoW2NIXVtjSF00KUMoPU8pTjVbQ0gyXVtDSDJdT1tDSDJdW0NIMl01

> <s_epik_cmdline>
J2VwaWtfcHl0aG9uJywgJy1waHQnLCAnMC4wJywgJy1waCcsICc3LjQnLCAnLXRuJywgJzgnLCAnLW1hJywgJzUwMCcsICctaW1hZScsICc8aW5maWxlLm1hZT4nLCAnLW9tYWUnLCAnPG91dGZpbGUubWFlPic=

> <r_lp_tautomer_probability>
1

> <r_epik_Ionization_Penalty>
0.0001

> <r_epik_Ionization_Penalty_Charging>
0

> <r_epik_Ionization_Penalty_Neutral>
0.0001

> <r_epik_State_Penalty>
-0

> <r_epik_Charging_Adjusted_Penalty>
0

> <i_epik_Tot_Q>
0

> <i_epik_Tot_abs_Q>
0

> <s_lp_Force_Field>
S-OPLS

> <r_lp_Energy>
36.7731

> <b_lp_Chiralities_Consistent>
1

> <s_lp_Variant>
lig_39-1

> <s_i_glide_gridfile>
glide-grid_5HNB-CDK8

> <i_i_glide_lignum>
27

> <i_i_glide_rotatable_bonds>
5

> <r_i_docking_score>
-10.0681

> <r_i_glide_ligand_efficiency>
-0.335602

> <r_i_glide_ligand_efficiency_sa>
-1.04279

> <r_i_glide_ligand_efficiency_ln>
-2.28757

> <r_i_glide_gscore>
-10.0681

> <r_i_glide_lipo>
-4.39178

> <r_i_glide_hbond>
-0.59117

> <r_i_glide_metal>
-0

> <r_i_glide_rewards>
-2.23468

> <r_i_glide_evdw>
-51.0235

> <r_i_glide_ecoul>
-4.83463

> <r_i_glide_erotb>
0.425945

> <r_i_glide_esite>
0

> <r_i_glide_emodel>
-83.8201

> <r_i_glide_energy>
-55.8581

> <r_i_glide_einternal>
4.86911

> <i_i_glide_confnum>
1

> <i_i_glide_posenum>
31

> <r_i_glide_eff_state_penalty>
-0

> <r_i_glide_rmsd>
0.0961879

> <s_glide_core_constrain_type>
snapped_core_restrain
$$$$