lig_21
                    3D
 Schrodinger Suite 2021-1.
 46 49  0  0  1  0            999 V2000
   30.5434   18.3168    8.9013 H   0  0  0  0  0  0
   29.5938   18.0914    9.3581 C   0  0  0  0  0  0
   28.9144   16.9141    9.0041 C   0  0  0  0  0  0
   29.4603   16.1273    8.0678 F   0  0  0  0  0  0
   27.6622   16.5706    9.5555 C   0  0  0  0  0  0
   26.9629   15.3299    9.1094 C   0  0  0  0  0  0
   27.6548   14.1190    8.8454 C   0  0  0  0  0  0
   28.7240   14.0480    9.0059 H   0  0  0  0  0  0
   26.9807   12.9844    8.3461 C   0  0  0  0  0  0
   27.5385   12.0825    8.1395 H   0  0  0  0  0  0
   25.5871   13.0032    8.1490 C   0  0  0  0  0  0
   24.9718   11.8420    7.7252 O   0  0  0  0  0  0
   23.5689   11.7203    7.9632 C   0  0  0  0  0  0
   23.3093   11.4689    9.4635 C   0  0  0  0  0  0
   22.2417   11.4266    9.6769 H   0  0  0  0  0  0
   23.7427   10.5229    9.7846 H   0  0  0  0  0  0
   23.7335   12.2484   10.0977 H   0  0  0  0  0  0
   23.1115   10.4925    7.1647 C   0  0  0  0  0  0
   22.0495   10.2973    7.3110 H   0  0  0  0  0  0
   23.2757   10.6288    6.0968 H   0  0  0  0  0  0
   23.6599    9.6026    7.4694 H   0  0  0  0  0  0
   22.8564   12.9710    7.4242 C   0  0  0  0  0  0
   21.7739   12.8875    7.5349 H   0  0  0  0  0  0
   23.0467   13.0052    6.3505 H   0  0  0  0  0  0
   23.3741   14.2781    8.0578 C   0  0  1  0  0  0
   23.0289   15.4838    7.1685 C   0  0  0  0  0  0
   23.5053   15.6677    6.0463 O   0  0  0  0  0  0
   22.1556   16.2570    7.8089 N   0  0  0  0  0  0
   21.6016   17.5337    7.3687 C   0  0  0  0  0  0
   21.9437   17.8216    6.3704 H   0  0  0  0  0  0
   20.5132   17.5092    7.3646 H   0  0  0  0  0  0
   21.9117   18.3031    8.0663 H   0  0  0  0  0  0
   21.9287   15.6919    9.0468 C   0  0  0  0  0  0
   21.0730   16.3275    9.9299 N   0  0  0  0  0  0
   20.9775   16.0382   10.9016 H   0  0  0  0  0  0
   22.5891   14.6043    9.2403 N   0  0  0  0  0  0
   24.8763   14.2090    8.3731 C   0  0  0  0  0  0
   25.5712   15.3422    8.8668 C   0  0  0  0  0  0
   25.0219   16.2546    9.0328 H   0  0  0  0  0  0
   27.1037   17.4855   10.4856 C   0  0  0  0  0  0
   26.1379   17.2870   10.9217 H   0  0  0  0  0  0
   27.7726   18.6823   10.8362 C   0  0  0  0  0  0
   27.0713   19.8039   11.9434 Cl  0  0  0  0  0  0
   29.0198   18.9879   10.2674 C   0  0  0  0  0  0
   29.5384   19.9046   10.5171 H   0  0  0  0  0  0
   20.6316   17.2309    9.7821 H   0  0  0  0  0  0
  1  2  1  0  0  0
  2 44  1  0  0  0
  2  3  2  0  0  0
  3  4  1  0  0  0
  3  5  1  0  0  0
  5  6  1  0  0  0
  5 40  2  0  0  0
  6 38  1  0  0  0
  6  7  2  0  0  0
  7  8  1  0  0  0
  7  9  1  0  0  0
  9 10  1  0  0  0
  9 11  2  0  0  0
 11 37  1  0  0  0
 11 12  1  0  0  0
 12 13  1  0  0  0
 13 14  1  0  0  0
 13 18  1  0  0  0
 13 22  1  0  0  0
 14 15  1  0  0  0
 14 16  1  0  0  0
 14 17  1  0  0  0
 18 19  1  0  0  0
 18 20  1  0  0  0
 18 21  1  0  0  0
 22 23  1  0  0  0
 22 24  1  0  0  0
 22 25  1  0  0  0
 25 36  1  0  0  0
 25 26  1  0  0  0
 25 37  1  0  0  0
 26 27  2  0  0  0
 26 28  1  0  0  0
 28 29  1  0  0  0
 28 33  1  0  0  0
 29 30  1  0  0  0
 29 31  1  0  0  0
 29 32  1  0  0  0
 33 34  1  0  0  0
 33 36  2  0  0  0
 34 35  1  0  0  0
 34 46  1  0  0  0
 37 38  2  0  0  0
 38 39  1  0  0  0
 40 41  1  0  0  0
 40 42  1  0  0  0
 42 43  1  0  0  0
 42 44  2  0  0  0
 44 45  1  0  0  0
M  END
> <s_m_source_file>
ligprep_bace_hunt.smi

> <i_m_source_file_index>
12

> <i_lp_mmshare_version>
53161

> <i_f3d_flags>
0

> <s_epik_input>
RmMxW2NIXVtjSF1jKENsKVtjSF1jMS1jKFtjSF0yKVtjSF1bY0hdYyhPQyhbQ0gzXSkoW0NIM10pW0NIMl0zKWMyW0NAQF0zNEMoPU8pTihbQ0gzXSlDKD1ONClbTkgyXQ==

> <s_epik_cmdline>
J2VwaWtfcHl0aG9uJywgJy1waHQnLCAnMC4wJywgJy1waCcsICc3LjQnLCAnLXRuJywgJzgnLCAnLW1hJywgJzUwMCcsICctaW1hZScsICc8aW5maWxlLm1hZT4nLCAnLW9tYWUnLCAnPG91dGZpbGUubWFlPic=

> <r_lp_tautomer_probability>
1

> <r_epik_Ionization_Penalty>
1.0455

> <r_epik_Ionization_Penalty_Charging>
0

> <r_epik_Ionization_Penalty_Neutral>
1.0455

> <r_epik_State_Penalty>
-0

> <r_epik_Charging_Adjusted_Penalty>
0

> <i_epik_Tot_Q>
0

> <i_epik_Tot_abs_Q>
0

> <s_epik_Chemistry_Notes>
This compound has an imine and may undergo hydrolysis.

> <s_lp_Force_Field>
S-OPLS

> <r_lp_Energy>
36.3316

> <b_lp_Chiralities_Consistent>
1

> <s_lp_Variant>
lig_21-1

> <s_i_glide_gridfile>
glide-grid_4JPC-BACE_HUNT

> <i_i_glide_lignum>
12

> <i_i_glide_rotatable_bonds>
1

> <r_i_docking_score>
-6.63319

> <r_i_glide_ligand_efficiency>
-0.245674

> <r_i_glide_ligand_efficiency_sa>
-0.737021

> <r_i_glide_ligand_efficiency_ln>
-1.5441

> <r_i_glide_gscore>
-6.63319

> <r_i_glide_lipo>
-2.72115

> <r_i_glide_hbond>
-0.258459

> <r_i_glide_metal>
-0

> <r_i_glide_rewards>
-1.07835

> <r_i_glide_evdw>
-37.7919

> <r_i_glide_ecoul>
-4.40492

> <r_i_glide_erotb>
0.129493

> <r_i_glide_esite>
-0.154389

> <r_i_glide_emodel>
-60.8858

> <r_i_glide_energy>
-42.1968

> <r_i_glide_einternal>
6.45833e-09

> <i_i_glide_confnum>
8

> <i_i_glide_posenum>
3

> <r_i_glide_eff_state_penalty>
-0

> <r_i_glide_rmsd>
0.0700507

> <s_glide_core_constrain_type>
snapped_core_restrain
$$$$