lig_53
                    3D
 Schrodinger Suite 2021-1.
 44 46  0  0  1  0            999 V2000
   67.5279  -34.9078   26.9607 H   0  0  0  0  0  0
   68.5633  -34.7508   27.2276 C   0  0  0  0  0  0
   69.1306  -35.4926   28.2858 C   0  0  0  0  0  0
   70.4795  -35.2995   28.6422 C   0  0  0  0  0  0
   71.2615  -34.3596   27.9503 C   0  0  0  0  0  0
   70.6895  -33.6313   26.8943 C   0  0  0  0  0  0
   69.3324  -33.8108   26.4980 C   0  0  0  0  0  0
   69.0764  -32.9264   25.3921 C   0  0  0  0  0  0
   70.2523  -32.2594   25.1279 C   0  0  0  0  0  0
   71.1971  -32.6653   26.0526 N   0  0  0  0  0  0
   72.1255  -32.2667   26.0437 H   0  0  0  0  0  0
   70.6664  -31.2375   24.1347 C   0  0  0  0  0  0
   69.9615  -31.0036   23.1274 O   0  0  0  0  0  0
   71.7278  -30.6073   24.3325 O   0  5  0  0  0  0
   67.7839  -32.7168   24.6575 C   0  0  0  0  0  0
   67.0823  -33.5249   24.8642 H   0  0  0  0  0  0
   67.9677  -32.7580   23.5833 H   0  0  0  0  0  0
   67.1511  -31.3563   25.0003 C   0  0  0  0  0  0
   66.3887  -31.1146   24.2596 H   0  0  0  0  0  0
   67.9006  -30.5708   24.9274 H   0  0  0  0  0  0
   66.5031  -31.3322   26.3890 C   0  0  0  0  0  0
   66.2165  -30.3124   26.6515 H   0  0  0  0  0  0
   67.1935  -31.6958   27.1480 H   0  0  0  0  0  0
   65.3602  -32.1638   26.3165 O   0  0  0  0  0  0
   64.5041  -32.2070   27.3828 C   0  0  0  0  0  0
   64.8358  -31.7432   28.6763 C   0  0  0  0  0  0
   63.9211  -31.8858   29.7362 C   0  0  0  0  0  0
   62.6755  -32.5133   29.5037 C   0  0  0  0  0  0
   62.3264  -32.9535   28.2043 C   0  0  0  0  0  0
   63.2410  -32.7812   27.1466 C   0  0  0  0  0  0
   62.9950  -33.1272   26.1533 H   0  0  0  0  0  0
   60.9969  -33.6367   27.9353 C   0  0  0  0  0  0
   60.8653  -33.8470   26.8723 H   0  0  0  0  0  0
   60.1666  -33.0068   28.2558 H   0  0  0  0  0  0
   60.9412  -34.5830   28.4746 H   0  0  0  0  0  0
   61.5900  -32.7573   30.8201 Cl  0  0  0  0  0  0
   64.2956  -31.3769   31.1181 C   0  0  0  0  0  0
   65.2568  -30.8623   31.1104 H   0  0  0  0  0  0
   63.5446  -30.6730   31.4798 H   0  0  0  0  0  0
   64.3624  -32.2057   31.8233 H   0  0  0  0  0  0
   65.7946  -31.2899   28.8766 H   0  0  0  0  0  0
   72.2942  -34.2023   28.2230 H   0  0  0  0  0  0
   71.1838  -36.2059   29.9261 Cl  0  0  0  0  0  0
   68.5293  -36.2148   28.8202 H   0  0  0  0  0  0
  1  2  1  0  0  0
  2  7  1  0  0  0
  2  3  2  0  0  0
  3  4  1  0  0  0
  3 44  1  0  0  0
  4  5  2  0  0  0
  4 43  1  0  0  0
  5  6  1  0  0  0
  5 42  1  0  0  0
  6 10  1  0  0  0
  6  7  2  0  0  0
  7  8  1  0  0  0
  8  9  2  0  0  0
  8 15  1  0  0  0
  9 10  1  0  0  0
  9 12  1  0  0  0
 10 11  1  0  0  0
 12 13  2  0  0  0
 12 14  1  0  0  0
 15 16  1  0  0  0
 15 17  1  0  0  0
 15 18  1  0  0  0
 18 19  1  0  0  0
 18 20  1  0  0  0
 18 21  1  0  0  0
 21 22  1  0  0  0
 21 23  1  0  0  0
 21 24  1  0  0  0
 24 25  1  0  0  0
 25 30  1  0  0  0
 25 26  2  0  0  0
 26 27  1  0  0  0
 26 41  1  0  0  0
 27 28  2  0  0  0
 27 37  1  0  0  0
 28 29  1  0  0  0
 28 36  1  0  0  0
 29 30  2  0  0  0
 29 32  1  0  0  0
 30 31  1  0  0  0
 32 33  1  0  0  0
 32 34  1  0  0  0
 32 35  1  0  0  0
 37 38  1  0  0  0
 37 39  1  0  0  0
 37 40  1  0  0  0
M  CHG  1  14  -1
M  END
> <s_m_source_file>
ligprep_mcl1.smi

> <i_m_source_file_index>
29

> <i_lp_mmshare_version>
53161

> <i_f3d_flags>
0

> <s_epik_input>
W2NIXTFjKENsKVtjSF1bY0hdYyhjMTIpYyhjKFtuSF0yKUMoPU8pW09IXSlbQ0gyXVtDSDJdW0NIMl1PYzNbY0hdYyhbQ0gzXSljKENsKWMoW2NIXTMpW0NIM10=

> <s_epik_cmdline>
J2VwaWtfcHl0aG9uJywgJy1waHQnLCAnMC4wJywgJy1waCcsICc3LjQnLCAnLXRuJywgJzgnLCAnLW1hJywgJzUwMCcsICctaW1hZScsICc8aW5maWxlLm1hZT4nLCAnLW9tYWUnLCAnPG91dGZpbGUubWFlPic=

> <r_lp_tautomer_probability>
1

> <r_epik_Ionization_Penalty>
0.0003

> <r_epik_Ionization_Penalty_Charging>
0.0003

> <r_epik_Ionization_Penalty_Neutral>
0

> <r_epik_State_Penalty>
-0

> <r_epik_Charging_Adjusted_Penalty>
0.000270667

> <i_epik_Tot_Q>
-1

> <i_epik_Tot_abs_Q>
1

> <s_lp_Force_Field>
S-OPLS

> <r_lp_Energy>
31.4838

> <b_lp_Chiralities_Consistent>
1

> <s_lp_Variant>
lig_53-1

> <s_i_glide_gridfile>
glide-grid_4HW3-MCL1

> <i_i_glide_lignum>
29

> <i_i_glide_rotatable_bonds>
6

> <r_i_docking_score>
-9.27404

> <r_i_glide_ligand_efficiency>
-0.356694

> <r_i_glide_ligand_efficiency_sa>
-1.0567

> <r_i_glide_ligand_efficiency_ln>
-2.17798

> <r_i_glide_gscore>
-9.27404

> <r_i_glide_lipo>
-5.42798

> <r_i_glide_hbond>
-0.360292

> <r_i_glide_metal>
-0

> <r_i_glide_rewards>
-1.57324

> <r_i_glide_evdw>
-43.0001

> <r_i_glide_ecoul>
-3.20254

> <r_i_glide_erotb>
0.764762

> <r_i_glide_esite>
-0.0468945

> <r_i_glide_emodel>
-72.309

> <r_i_glide_energy>
-46.2027

> <r_i_glide_einternal>
0.240026

> <i_i_glide_confnum>
4

> <i_i_glide_posenum>
1

> <r_i_glide_eff_state_penalty>
-0

> <r_i_glide_rmsd>
0.0733466

> <s_glide_core_constrain_type>
snapped_core_restrain
$$$$