lig_41
                    3D
 Schrodinger Suite 2021-1.
 55 59  0  0  1  0            999 V2000
   -2.0805   14.4873   -7.6412 H   0  0  0  0  0  0
   -1.5502   13.6685   -7.1736 C   0  0  0  0  0  0
   -0.3318   13.8725   -6.6982 N   0  0  0  0  0  0
    0.0452   12.6783   -6.1765 N   0  0  0  0  0  0
    1.3278   12.5486   -5.5171 C   0  0  0  0  0  0
    1.2713   11.8087   -4.7170 H   0  0  0  0  0  0
    2.0806   12.2235   -6.2325 H   0  0  0  0  0  0
    1.6327   13.5064   -5.0879 H   0  0  0  0  0  0
   -0.9277   11.7161   -6.3427 C   0  0  0  0  0  0
   -0.7974   10.6983   -5.9955 H   0  0  0  0  0  0
   -1.9822   12.3287   -6.9540 C   0  0  0  0  0  0
   -3.2896   11.7369   -7.2769 C   0  0  0  0  0  0
   -3.3822   10.4435   -7.8333 C   0  0  0  0  0  0
   -2.4802    9.8918   -8.0600 H   0  0  0  0  0  0
   -4.6365    9.8602   -8.0921 C   0  0  0  0  0  0
   -4.6851    8.8664   -8.5126 H   0  0  0  0  0  0
   -5.8219   10.5517   -7.7702 C   0  0  0  0  0  0
   -7.1735    9.8848   -7.9817 C   0  0  0  0  0  0
   -7.9536   10.4880   -7.5140 H   0  0  0  0  0  0
   -7.1695    8.9389   -7.4349 H   0  0  0  0  0  0
   -7.5232    9.6545   -9.4276 C   0  0  0  0  0  0
   -8.1639    8.5793   -9.8118 N   0  0  0  0  0  0
   -8.3508    8.6948  -11.1534 N   0  0  0  0  0  0
   -8.8477    7.9739  -11.6677 H   0  0  0  0  0  0
   -7.8184    9.8525  -11.6843 C   0  0  0  0  0  0
   -7.2599   10.5004  -10.5527 C   0  0  0  0  0  0
   -6.6040   11.7278  -10.7705 C   0  0  0  0  0  0
   -6.1751   12.2347   -9.9192 H   0  0  0  0  0  0
   -6.4372   12.2544  -12.0682 C   0  0  0  0  0  0
   -5.6527   13.5232  -12.2472 C   0  0  0  0  0  0
   -6.0998   14.4269  -12.9549 O   0  0  0  0  0  0
   -4.5061   13.6366  -11.5361 N   0  0  0  0  0  0
   -4.0159   14.9286  -11.0671 C   0  0  0  0  0  0
   -3.8523   14.8932   -9.9885 H   0  0  0  0  0  0
   -4.7299   15.7358  -11.2413 H   0  0  0  0  0  0
   -2.7085   15.2100  -11.7936 C   0  0  0  0  0  0
   -2.2598   16.1345  -11.4569 H   0  0  0  0  0  0
   -2.9299   15.3351  -12.8515 H   0  0  0  0  0  0
   -1.6907   14.0907  -11.5549 C   0  0  0  0  0  0
   -0.8403   14.2812  -12.2007 H   0  0  0  0  0  0
   -1.3330   14.1469  -10.5246 H   0  0  0  0  0  0
   -2.2633   12.6919  -11.8205 C   0  0  0  0  0  0
   -2.3635   12.5299  -12.8941 H   0  0  0  0  0  0
   -1.5674   11.9321  -11.4622 H   0  0  0  0  0  0
   -3.6313   12.5187  -11.1436 C   0  0  0  0  0  0
   -3.5200   12.5028  -10.0595 H   0  0  0  0  0  0
   -4.0263   11.5434  -11.4311 H   0  0  0  0  0  0
   -7.0462   11.6139  -13.1703 C   0  0  0  0  0  0
   -6.9633   12.0385  -14.1620 H   0  0  0  0  0  0
   -7.7515   10.4094  -12.9744 C   0  0  0  0  0  0
   -8.2212    9.9126  -13.8104 H   0  0  0  0  0  0
   -5.7366   11.8508   -7.2286 C   0  0  0  0  0  0
   -6.6313   12.4032   -6.9879 H   0  0  0  0  0  0
   -4.4808   12.4437   -7.0021 C   0  0  0  0  0  0
   -4.4377   13.4359   -6.5775 H   0  0  0  0  0  0
  1  2  1  0  0  0
  2 11  1  0  0  0
  2  3  2  0  0  0
  3  4  1  0  0  0
  4  5  1  0  0  0
  4  9  1  0  0  0
  5  6  1  0  0  0
  5  7  1  0  0  0
  5  8  1  0  0  0
  9 10  1  0  0  0
  9 11  2  0  0  0
 11 12  1  0  0  0
 12 54  1  0  0  0
 12 13  2  0  0  0
 13 14  1  0  0  0
 13 15  1  0  0  0
 15 16  1  0  0  0
 15 17  2  0  0  0
 17 18  1  0  0  0
 17 52  1  0  0  0
 18 19  1  0  0  0
 18 20  1  0  0  0
 18 21  1  0  0  0
 21 26  1  0  0  0
 21 22  2  0  0  0
 22 23  1  0  0  0
 23 24  1  0  0  0
 23 25  1  0  0  0
 25 50  1  0  0  0
 25 26  2  0  0  0
 26 27  1  0  0  0
 27 28  1  0  0  0
 27 29  2  0  0  0
 29 30  1  0  0  0
 29 48  1  0  0  0
 30 31  2  0  0  0
 30 32  1  0  0  0
 32 45  1  0  0  0
 32 33  1  0  0  0
 33 34  1  0  0  0
 33 35  1  0  0  0
 33 36  1  0  0  0
 36 37  1  0  0  0
 36 38  1  0  0  0
 36 39  1  0  0  0
 39 40  1  0  0  0
 39 41  1  0  0  0
 39 42  1  0  0  0
 42 43  1  0  0  0
 42 44  1  0  0  0
 42 45  1  0  0  0
 45 46  1  0  0  0
 45 47  1  0  0  0
 48 49  1  0  0  0
 48 50  2  0  0  0
 50 51  1  0  0  0
 52 53  1  0  0  0
 52 54  2  0  0  0
 54 55  1  0  0  0
M  END
> <s_m_source_file>
ligprep_cdk8.smi

> <i_m_source_file_index>
29

> <i_lp_mmshare_version>
53161

> <i_f3d_flags>
0

> <s_epik_input>
W0NIM11uMW5bY0hdYyhbY0hdMSktYzJbY0hdW2NIXWMoW2NIXVtjSF0yKVtDSDJdYyhuW25IXTMpYyhjMzQpW2NIXWMoW2NIXVtjSF00KUMoPU8pTjVbQ0gyXVtDSDJdW0NIMl1bQ0gyXVtDSDJdNQ==

> <s_epik_cmdline>
J2VwaWtfcHl0aG9uJywgJy1waHQnLCAnMC4wJywgJy1waCcsICc3LjQnLCAnLXRuJywgJzgnLCAnLW1hJywgJzUwMCcsICctaW1hZScsICc8aW5maWxlLm1hZT4nLCAnLW9tYWUnLCAnPG91dGZpbGUubWFlPic=

> <r_lp_tautomer_probability>
1

> <r_epik_Ionization_Penalty>
0.0001

> <r_epik_Ionization_Penalty_Charging>
0

> <r_epik_Ionization_Penalty_Neutral>
0.0001

> <r_epik_State_Penalty>
-0

> <r_epik_Charging_Adjusted_Penalty>
0

> <i_epik_Tot_Q>
0

> <i_epik_Tot_abs_Q>
0

> <s_lp_Force_Field>
S-OPLS

> <r_lp_Energy>
36.9826

> <b_lp_Chiralities_Consistent>
1

> <s_lp_Variant>
lig_41-1

> <s_i_glide_gridfile>
glide-grid_5HNB-CDK8

> <i_i_glide_lignum>
29

> <i_i_glide_rotatable_bonds>
5

> <r_i_docking_score>
-10.1111

> <r_i_glide_ligand_efficiency>
-0.337036

> <r_i_glide_ligand_efficiency_sa>
-1.04725

> <r_i_glide_ligand_efficiency_ln>
-2.29735

> <r_i_glide_gscore>
-10.1111

> <r_i_glide_lipo>
-4.38906

> <r_i_glide_hbond>
-0.598316

> <r_i_glide_metal>
-0

> <r_i_glide_rewards>
-2.1945

> <r_i_glide_evdw>
-49.3812

> <r_i_glide_ecoul>
-5.93257

> <r_i_glide_erotb>
0.429739

> <r_i_glide_esite>
0

> <r_i_glide_emodel>
-82.5703

> <r_i_glide_energy>
-55.3137

> <r_i_glide_einternal>
4.46746

> <i_i_glide_confnum>
29

> <i_i_glide_posenum>
20

> <r_i_glide_eff_state_penalty>
-0

> <r_i_glide_rmsd>
0.0982452

> <s_glide_core_constrain_type>
snapped_core_restrain
$$$$