lig_p38a_2ff
                    3D
 Schrodinger Suite 2021-1.
 49 52  0  0  1  0            999 V2000
   29.9765   11.7137   31.4059 H   0  0  0  0  0  0
   29.7127   11.1324   32.1064 O   0  0  0  0  0  0
   28.3745   10.7384   31.8850 C   0  0  1  0  0  0
   27.7410   11.6248   31.9498 H   0  0  0  0  0  0
   28.2573   10.1247   30.4817 C   0  0  0  0  0  0
   28.9566    9.2940   30.3822 H   0  0  0  0  0  0
   28.5404   10.8621   29.7369 H   0  0  0  0  0  0
   26.8307    9.6320   30.1966 C   0  0  0  0  0  0
   26.7929    9.1672   29.2106 H   0  0  0  0  0  0
   26.1604   10.4909   30.1622 H   0  0  0  0  0  0
   26.3910    8.6262   31.2775 C   0  0  2  0  0  0
   27.0920    7.7920   31.2201 H   0  0  0  0  0  0
   25.0894    8.0053   31.0218 N   0  0  0  0  0  0
   25.0814    6.9950   30.9399 H   0  0  0  0  0  0
   23.8582    8.6331   31.0138 C   0  0  0  0  0  0
   23.8302    9.9449   31.2235 N   0  0  0  0  0  0
   22.6424   10.5798   31.2458 C   0  0  0  0  0  0
   21.4597    9.8491   31.0213 C   0  0  0  0  0  0
   21.5946    8.4627   30.7939 C   0  0  0  0  0  0
   20.7321    7.8365   30.6203 H   0  0  0  0  0  0
   22.8008    7.8514   30.8017 N   0  0  0  0  0  0
   20.1870   10.5674   31.0424 C   0  0  0  0  0  0
   19.2967    9.9922   30.8430 H   0  0  0  0  0  0
   20.1455   11.8980   31.2898 C   0  0  0  0  0  0
   18.9962   12.6556   31.2950 O   0  0  0  0  0  0
   17.7525   12.0971   31.2157 C   0  0  0  0  0  0
   17.2288   11.3048   32.2582 C   0  0  0  0  0  0
   17.9880   11.0224   33.3412 F   0  0  0  0  0  0
   15.9114   10.8189   32.1734 C   0  0  0  0  0  0
   15.5066   10.2090   32.9677 H   0  0  0  0  0  0
   15.1328   11.1077   31.0383 C   0  0  0  0  0  0
   13.8844   10.6152   30.9330 F   0  0  0  0  0  0
   15.6484   11.9089   30.0063 C   0  0  0  0  0  0
   15.0412   12.1330   29.1427 H   0  0  0  0  0  0
   16.9518   12.4208   30.1064 C   0  0  0  0  0  0
   17.3464   13.0496   29.3211 H   0  0  0  0  0  0
   21.3705   12.6631   31.5245 C   0  0  0  0  0  0
   21.3204   13.8764   31.7282 O   0  0  0  0  0  0
   22.5501   11.9853   31.4954 N   0  0  0  0  0  0
   23.8157   12.7220   31.6718 C   0  0  0  0  0  0
   24.4502   12.2209   32.4036 H   0  0  0  0  0  0
   24.3619   12.7555   30.7280 H   0  0  0  0  0  0
   23.7069   13.7494   32.0221 H   0  0  0  0  0  0
   26.5266    9.2059   32.7044 C   0  0  0  0  0  0
   25.8277   10.0265   32.8612 H   0  0  0  0  0  0
   26.2772    8.4432   33.4428 H   0  0  0  0  0  0
   27.9514    9.7242   32.9611 C   0  0  0  0  0  0
   28.6466    8.8837   32.9684 H   0  0  0  0  0  0
   28.0059   10.1813   33.9499 H   0  0  0  0  0  0
  1  2  1  0  0  0
  2  3  1  0  0  0
  3 47  1  0  0  0
  3  4  1  0  0  0
  3  5  1  0  0  0
  5  6  1  0  0  0
  5  7  1  0  0  0
  5  8  1  0  0  0
  8  9  1  0  0  0
  8 10  1  0  0  0
  8 11  1  0  0  0
 11 12  1  0  0  0
 11 13  1  0  0  0
 11 44  1  0  0  0
 13 14  1  0  0  0
 13 15  1  0  0  0
 15 21  1  0  0  0
 15 16  2  0  0  0
 16 17  1  0  0  0
 17 39  1  0  0  0
 17 18  2  0  0  0
 18 19  1  0  0  0
 18 22  1  0  0  0
 19 20  1  0  0  0
 19 21  2  0  0  0
 22 23  1  0  0  0
 22 24  2  0  0  0
 24 25  1  0  0  0
 24 37  1  0  0  0
 25 26  1  0  0  0
 26 35  1  0  0  0
 26 27  2  0  0  0
 27 28  1  0  0  0
 27 29  1  0  0  0
 29 30  1  0  0  0
 29 31  2  0  0  0
 31 32  1  0  0  0
 31 33  1  0  0  0
 33 34  1  0  0  0
 33 35  2  0  0  0
 35 36  1  0  0  0
 37 38  2  0  0  0
 37 39  1  0  0  0
 39 40  1  0  0  0
 40 41  1  0  0  0
 40 42  1  0  0  0
 40 43  1  0  0  0
 44 45  1  0  0  0
 44 46  1  0  0  0
 44 47  1  0  0  0
 47 48  1  0  0  0
 47 49  1  0  0  0
M  END
> <s_m_source_file>
ligprep_p38.smi

> <i_m_source_file_index>
7

> <i_lp_mmshare_version>
53161

> <i_f3d_flags>
0

> <s_epik_input>
W09IXVtDQEhdMVtDSDJdW0NIMl1bQ0BIXShbQ0gyXVtDSDJdMSlbTkhdYyhuMiluW2NIXWMoYzIzKVtjSF1jKGMoPU8pbjNbQ0gzXSlPYzRjKEYpW2NIXWMoRilbY0hdW2NIXTQ=

> <s_epik_cmdline>
J2VwaWtfcHl0aG9uJywgJy1waHQnLCAnMC4wJywgJy1waCcsICc3LjQnLCAnLXRuJywgJzgnLCAnLW1hJywgJzUwMCcsICctaW1hZScsICc8aW5maWxlLm1hZT4nLCAnLW9tYWUnLCAnPG91dGZpbGUubWFlPic=

> <r_lp_tautomer_probability>
1

> <r_epik_Ionization_Penalty>
0

> <r_epik_Ionization_Penalty_Charging>
0

> <r_epik_Ionization_Penalty_Neutral>
0

> <r_epik_State_Penalty>
-0

> <r_epik_Charging_Adjusted_Penalty>
7.39736e-07

> <i_epik_Tot_Q>
0

> <i_epik_Tot_abs_Q>
0

> <s_epik_Chemistry_Notes>
This compound has an imine and may undergo hydrolysis.

> <s_lp_Force_Field>
S-OPLS

> <r_lp_Energy>
55.9827

> <b_lp_Chiralities_Consistent>
1

> <s_lp_Variant>
lig_p38a_2ff-2

> <s_i_glide_gridfile>
glide-grid_3FLY-P38

> <i_i_glide_lignum>
8

> <i_i_glide_rotatable_bonds>
5

> <r_i_docking_score>
-10.1665

> <r_i_glide_ligand_efficiency>
-0.350568

> <r_i_glide_ligand_efficiency_sa>
-1.07706

> <r_i_glide_ligand_efficiency_ln>
-2.32787

> <r_i_glide_gscore>
-10.1665

> <r_i_glide_lipo>
-3.02073

> <r_i_glide_hbond>
-0.976528

> <r_i_glide_metal>
-0

> <r_i_glide_rewards>
-2.7118

> <r_i_glide_evdw>
-43.2286

> <r_i_glide_ecoul>
-11.8717

> <r_i_glide_erotb>
0.484762

> <r_i_glide_esite>
0

> <r_i_glide_emodel>
-82.2011

> <r_i_glide_energy>
-55.1003

> <r_i_glide_einternal>
7.05214

> <i_i_glide_confnum>
2

> <i_i_glide_posenum>
3

> <r_i_glide_eff_state_penalty>
-0

> <r_i_glide_rmsd>
0.0979991

> <s_glide_core_constrain_type>
snapped_core_restrain
$$$$