lig_38
                    3D
 Schrodinger Suite 2021-1.
 45 48  0  0  1  0            999 V2000
   29.4841   16.2072    8.4549 H   0  0  0  0  0  0
   28.9464   16.8565    9.1311 C   0  0  0  0  0  0
   29.6186   17.9579    9.5244 N   0  0  0  0  0  0
   28.9877   18.8212   10.3435 C   0  0  0  0  0  0
   29.5404   19.7025   10.6331 H   0  0  0  0  0  0
   27.6847   18.6110   10.8276 C   0  0  0  0  0  0
   27.1014   19.5086   11.6575 F   0  0  0  0  0  0
   27.0043   17.4488   10.4200 C   0  0  0  0  0  0
   26.0063   17.2621   10.7869 H   0  0  0  0  0  0
   27.6281   16.5389    9.5353 C   0  0  0  0  0  0
   26.9353   15.3274    9.0449 C   0  0  0  0  0  0
   27.6466   14.1349    8.7890 C   0  0  0  0  0  0
   28.7121   14.0891    8.9580 H   0  0  0  0  0  0
   26.9869   12.9806    8.3286 C   0  0  0  0  0  0
   27.5472   12.0743    8.1586 H   0  0  0  0  0  0
   25.5983   12.9916    8.1125 C   0  0  0  0  0  0
   25.0053   11.8141    7.7093 O   0  0  0  0  0  0
   23.6025   11.6774    7.9247 C   0  0  0  0  0  0
   23.3202   11.4356    9.4263 C   0  0  0  0  0  0
   22.2485   11.3729    9.6199 H   0  0  0  0  0  0
   23.7647   10.4981    9.7651 H   0  0  0  0  0  0
   23.7194   12.2233   10.0671 H   0  0  0  0  0  0
   23.1845   10.4333    7.1272 C   0  0  0  0  0  0
   22.1187   10.2291    7.2403 H   0  0  0  0  0  0
   23.3856   10.5615    6.0637 H   0  0  0  0  0  0
   23.7313    9.5494    7.4601 H   0  0  0  0  0  0
   22.8779   12.9162    7.3627 C   0  0  0  0  0  0
   21.7945   12.8124    7.4631 H   0  0  0  0  0  0
   23.0773   12.9518    6.2899 H   0  0  0  0  0  0
   23.3680   14.2344    8.0013 C   0  0  1  0  0  0
   22.9949   15.4378    7.1208 C   0  0  0  0  0  0
   23.4177   15.6240    5.9776 O   0  0  0  0  0  0
   22.1610   16.2188    7.8003 N   0  0  0  0  0  0
   21.5909   17.4978    7.3861 C   0  0  0  0  0  0
   21.9961   17.8391    6.4321 H   0  0  0  0  0  0
   20.5054   17.4218    7.2959 H   0  0  0  0  0  0
   21.8208   18.2488    8.1392 H   0  0  0  0  0  0
   21.9499   15.6329    9.0317 C   0  0  0  0  0  0
   21.1098   16.2569    9.9311 N   0  0  0  0  0  0
   21.0577   15.9586   10.9044 H   0  0  0  0  0  0
   22.5932   14.5349    9.1972 N   0  0  0  0  0  0
   24.8693   14.1918    8.3105 C   0  0  0  0  0  0
   25.5447   15.3377    8.7968 C   0  0  0  0  0  0
   24.9829   16.2457    8.9664 H   0  0  0  0  0  0
   20.6892   17.1741    9.8063 H   0  0  0  0  0  0
  1  2  1  0  0  0
  2 10  1  0  0  0
  2  3  2  0  0  0
  3  4  1  0  0  0
  4  5  1  0  0  0
  4  6  2  0  0  0
  6  7  1  0  0  0
  6  8  1  0  0  0
  8  9  1  0  0  0
  8 10  2  0  0  0
 10 11  1  0  0  0
 11 43  1  0  0  0
 11 12  2  0  0  0
 12 13  1  0  0  0
 12 14  1  0  0  0
 14 15  1  0  0  0
 14 16  2  0  0  0
 16 42  1  0  0  0
 16 17  1  0  0  0
 17 18  1  0  0  0
 18 19  1  0  0  0
 18 23  1  0  0  0
 18 27  1  0  0  0
 19 20  1  0  0  0
 19 21  1  0  0  0
 19 22  1  0  0  0
 23 24  1  0  0  0
 23 25  1  0  0  0
 23 26  1  0  0  0
 27 28  1  0  0  0
 27 29  1  0  0  0
 27 30  1  0  0  0
 30 41  1  0  0  0
 30 31  1  0  0  0
 30 42  1  0  0  0
 31 32  2  0  0  0
 31 33  1  0  0  0
 33 34  1  0  0  0
 33 38  1  0  0  0
 34 35  1  0  0  0
 34 36  1  0  0  0
 34 37  1  0  0  0
 38 39  1  0  0  0
 38 41  2  0  0  0
 39 40  1  0  0  0
 39 45  1  0  0  0
 42 43  2  0  0  0
 43 44  1  0  0  0
M  END
> <s_m_source_file>
ligprep_bace_hunt.smi

> <i_m_source_file_index>
29

> <i_lp_mmshare_version>
53161

> <i_f3d_flags>
0

> <s_epik_input>
RmMxW2NIXW5bY0hdYyhbY0hdMSktYyhbY0hdMilbY0hdW2NIXWMoT0MoW0NIM10pKFtDSDNdKVtDSDJdMyljMltDQEBdMzRDKD1PKU4oW0NIM10pQyg9TjQpW05IMl0=

> <s_epik_cmdline>
J2VwaWtfcHl0aG9uJywgJy1waHQnLCAnMC4wJywgJy1waCcsICc3LjQnLCAnLXRuJywgJzgnLCAnLW1hJywgJzUwMCcsICctaW1hZScsICc8aW5maWxlLm1hZT4nLCAnLW9tYWUnLCAnPG91dGZpbGUubWFlPic=

> <r_lp_tautomer_probability>
1

> <r_epik_Ionization_Penalty>
1.0456

> <r_epik_Ionization_Penalty_Charging>
0

> <r_epik_Ionization_Penalty_Neutral>
1.0456

> <r_epik_State_Penalty>
-0

> <r_epik_Charging_Adjusted_Penalty>
0

> <i_epik_Tot_Q>
0

> <i_epik_Tot_abs_Q>
0

> <s_epik_Chemistry_Notes>
This compound has an imine and may undergo hydrolysis.

> <s_lp_Force_Field>
S-OPLS

> <r_lp_Energy>
36.1086

> <b_lp_Chiralities_Consistent>
1

> <s_lp_Variant>
lig_38-1

> <s_i_glide_gridfile>
glide-grid_4JPC-BACE_HUNT

> <i_i_glide_lignum>
29

> <i_i_glide_rotatable_bonds>
1

> <r_i_docking_score>
-6.96981

> <r_i_glide_ligand_efficiency>
-0.26807

> <r_i_glide_ligand_efficiency_sa>
-0.794155

> <r_i_glide_ligand_efficiency_ln>
-1.63684

> <r_i_glide_gscore>
-6.96981

> <r_i_glide_lipo>
-2.14855

> <r_i_glide_hbond>
-0.237512

> <r_i_glide_metal>
-0

> <r_i_glide_rewards>
-1.78537

> <r_i_glide_evdw>
-39.0114

> <r_i_glide_ecoul>
-5.68501

> <r_i_glide_erotb>
0.152153

> <r_i_glide_esite>
-0.147206

> <r_i_glide_emodel>
-64.69

> <r_i_glide_energy>
-44.6964

> <r_i_glide_einternal>
0.0643433

> <i_i_glide_confnum>
14

> <i_i_glide_posenum>
11

> <r_i_glide_eff_state_penalty>
-0

> <r_i_glide_rmsd>
0.0939928

> <s_glide_core_constrain_type>
snapped_core_restrain
$$$$