lig_55
                    3D
 Schrodinger Suite 2021-1.
 50 54  0  0  1  0            999 V2000
   96.7148   45.9254  267.0636 H   0  0  0  0  0  0
   96.0054   46.7256  267.2136 C   0  0  0  0  0  0
   94.7352   46.4869  266.8183 N   0  0  0  0  0  0
   93.8344   47.4903  266.9682 C   0  0  0  0  0  0
   92.5005   47.2988  266.5437 C   0  0  0  0  0  0
   92.2180   46.3421  266.1325 H   0  0  0  0  0  0
   91.5410   48.3162  266.6828 C   0  0  0  0  0  0
   90.1970   48.1408  266.3267 N   0  0  0  0  0  0
   89.5182   48.6912  266.8532 H   0  0  0  0  0  0
   89.6454   47.3234  265.3305 C   0  0  0  0  0  0
   90.3781   46.9319  264.1855 C   0  0  0  0  0  0
   91.4040   47.2422  264.0287 H   0  0  0  0  0  0
   89.8746   46.1411  263.2192 N   0  0  0  0  0  0
   88.5998   45.7296  263.3116 C   0  0  0  0  0  0
   88.2442   45.0958  262.5121 H   0  0  0  0  0  0
   87.7719   46.0739  264.3843 C   0  0  0  0  0  0
   86.7583   45.6966  264.4321 H   0  0  0  0  0  0
   88.2977   46.8873  265.4024 C   0  0  0  0  0  0
   87.2422   47.2200  266.8183 S   0  0  0  0  0  0
   85.8482   47.1503  266.3533 O   0  0  0  0  0  0
   87.6924   48.4415  267.4899 O   0  0  0  0  0  0
   87.5543   45.7813  267.9161 C   0  0  0  0  0  0
   86.9307   45.8616  268.8045 H   0  0  0  0  0  0
   87.3139   44.8648  267.3726 H   0  0  0  0  0  0
   88.6072   45.7700  268.2001 H   0  0  0  0  0  0
   91.9207   49.5364  267.2542 C   0  0  0  0  0  0
   91.1862   50.3258  267.3622 H   0  0  0  0  0  0
   93.2410   49.7587  267.6957 C   0  0  0  0  0  0
   93.5504   51.0456  268.3137 C   0  0  0  0  0  0
   94.5172   51.9057  267.7541 C   0  0  0  0  0  0
   95.0536   51.6092  266.8539 H   0  0  0  0  0  0
   94.7840   53.1663  268.3282 C   0  0  0  0  0  0
   95.7012   53.9714  267.7394 F   0  0  0  0  0  0
   94.0973   53.5994  269.4794 C   0  0  0  0  0  0
   94.1090   54.7909  270.2676 C   0  0  0  0  0  0
   94.7092   55.6825  270.1078 H   0  0  0  0  0  0
   93.2918   54.5457  271.3371 C   0  0  0  0  0  0
   93.0942   55.1698  272.1974 H   0  0  0  0  0  0
   92.6879   53.3068  271.2094 N   0  0  0  0  0  0
   91.7481   52.7400  272.1519 C   0  0  0  0  0  0
   90.8052   52.5181  271.6496 H   0  0  0  0  0  0
   92.1667   51.8346  272.5877 H   0  0  0  0  0  0
   91.5728   53.4571  272.9438 H   0  0  0  0  0  0
   93.1624   52.6948  270.0594 C   0  0  0  0  0  0
   92.8756   51.4447  269.4772 C   0  0  0  0  0  0
   92.1423   50.7954  269.9312 H   0  0  0  0  0  0
   94.2077   48.7325  267.5677 C   0  0  0  0  0  0
   95.4773   48.9185  268.0118 N   0  0  0  0  0  0
   96.3758   47.9373  267.8096 C   0  0  0  0  0  0
   97.3882   48.1213  268.1256 H   0  0  0  0  0  0
  1  2  1  0  0  0
  2 49  1  0  0  0
  2  3  2  0  0  0
  3  4  1  0  0  0
  4 47  1  0  0  0
  4  5  2  0  0  0
  5  6  1  0  0  0
  5  7  1  0  0  0
  7  8  1  0  0  0
  7 26  2  0  0  0
  8  9  1  0  0  0
  8 10  1  0  0  0
 10 18  1  0  0  0
 10 11  2  0  0  0
 11 12  1  0  0  0
 11 13  1  0  0  0
 13 14  2  0  0  0
 14 15  1  0  0  0
 14 16  1  0  0  0
 16 17  1  0  0  0
 16 18  2  0  0  0
 18 19  1  0  0  0
 19 20  2  0  0  0
 19 21  2  0  0  0
 19 22  1  0  0  0
 22 23  1  0  0  0
 22 24  1  0  0  0
 22 25  1  0  0  0
 26 27  1  0  0  0
 26 28  1  0  0  0
 28 29  1  0  0  0
 28 47  2  0  0  0
 29 45  1  0  0  0
 29 30  2  0  0  0
 30 31  1  0  0  0
 30 32  1  0  0  0
 32 33  1  0  0  0
 32 34  2  0  0  0
 34 44  1  0  0  0
 34 35  1  0  0  0
 35 36  1  0  0  0
 35 37  2  0  0  0
 37 38  1  0  0  0
 37 39  1  0  0  0
 39 40  1  0  0  0
 39 44  1  0  0  0
 40 41  1  0  0  0
 40 42  1  0  0  0
 40 43  1  0  0  0
 44 45  2  0  0  0
 45 46  1  0  0  0
 47 48  1  0  0  0
 48 49  2  0  0  0
 49 50  1  0  0  0
M  END
> <s_m_source_file>
ligprep_pfkfb3.smi

> <i_m_source_file_index>
27

> <i_lp_mmshare_version>
53161

> <i_f3d_flags>
0

> <s_epik_input>
W2NIXTFbY0hdbihbQ0gzXSljKGMxMilbY0hdYyhbY0hdYzJGKS1jKGMoYzM0KW5bY0hdW2NIXW4zKVtjSF1jKFtjSF00KVtOSF1jNVtjSF1uW2NIXVtjSF1jNVMoPU8pKD1PKVtDSDNd

> <s_epik_cmdline>
J2VwaWtfcHl0aG9uJywgJy1waHQnLCAnMC4wJywgJy1waCcsICc3LjQnLCAnLXRuJywgJzgnLCAnLW1hJywgJzUwMCcsICctaW1hZScsICc8aW5maWxlLm1hZT4nLCAnLW9tYWUnLCAnPG91dGZpbGUubWFlPic=

> <r_lp_tautomer_probability>
1

> <r_epik_Ionization_Penalty>
0

> <r_epik_Ionization_Penalty_Charging>
0

> <r_epik_Ionization_Penalty_Neutral>
0

> <r_epik_State_Penalty>
-0

> <r_epik_Charging_Adjusted_Penalty>
0

> <i_epik_Tot_Q>
0

> <i_epik_Tot_abs_Q>
0

> <s_lp_Force_Field>
S-OPLS

> <r_lp_Energy>
49.9543

> <b_lp_Chiralities_Consistent>
1

> <s_lp_Variant>
lig_55-1

> <s_i_glide_gridfile>
glide-grid_6HVI-PFKFB3

> <i_i_glide_lignum>
27

> <i_i_glide_rotatable_bonds>
4

> <r_i_docking_score>
-12.0208

> <r_i_glide_ligand_efficiency>
-0.37565

> <r_i_glide_ligand_efficiency_sa>
-1.19261

> <r_i_glide_ligand_efficiency_ln>
-2.69178

> <r_i_glide_gscore>
-12.0208

> <r_i_glide_lipo>
-6.13519

> <r_i_glide_hbond>
-0.32

> <r_i_glide_metal>
-0

> <r_i_glide_rewards>
-1.74596

> <r_i_glide_evdw>
-61.6931

> <r_i_glide_ecoul>
-7.06854

> <r_i_glide_erotb>
0.400013

> <r_i_glide_esite>
-0.0747197

> <r_i_glide_emodel>
-121.684

> <r_i_glide_energy>
-68.7616

> <r_i_glide_einternal>
1.51254e-07

> <i_i_glide_confnum>
3

> <i_i_glide_posenum>
3

> <r_i_glide_eff_state_penalty>
-0

> <r_i_glide_rmsd>
0.0857469

> <s_glide_core_constrain_type>
snapped_core_restrain
$$$$