lig_28
                    3D
 Schrodinger Suite 2021-1.
 41 43  0  0  1  0            999 V2000
   67.8932  -36.3256   28.5379 H   0  0  0  0  0  0
   68.6096  -35.6347   28.1159 C   0  0  0  0  0  0
   69.9166  -35.5695   28.6370 C   0  0  0  0  0  0
   70.8451  -34.6652   28.0857 C   0  0  0  0  0  0
   70.4561  -33.8403   27.0128 C   0  0  0  0  0  0
   69.1453  -33.8927   26.4589 C   0  0  0  0  0  0
   68.2316  -34.8060   27.0395 C   0  0  0  0  0  0
   67.2261  -34.8682   26.6493 H   0  0  0  0  0  0
   69.0730  -32.9349   25.3870 C   0  0  0  0  0  0
   70.3038  -32.3194   25.3114 C   0  0  0  0  0  0
   71.1196  -32.8709   26.2869 N   0  0  0  0  0  0
   72.0692  -32.5438   26.4014 H   0  0  0  0  0  0
   70.8783  -31.2381   24.4682 C   0  0  0  0  0  0
   72.0256  -30.8186   24.7342 O   0  0  0  0  0  0
   70.2163  -30.7447   23.5262 O   0  5  0  0  0  0
   67.8666  -32.6306   24.5473 C   0  0  0  0  0  0
   67.1457  -33.4459   24.5981 H   0  0  0  0  0  0
   68.1587  -32.5624   23.4994 H   0  0  0  0  0  0
   67.1885  -31.3189   24.9651 C   0  0  0  0  0  0
   66.4434  -31.0455   24.2179 H   0  0  0  0  0  0
   67.9280  -30.5199   24.9598 H   0  0  0  0  0  0
   66.5152  -31.3653   26.3264 C   0  0  0  0  0  0
   66.2235  -30.3469   26.5786 H   0  0  0  0  0  0
   67.2503  -31.7200   27.0392 H   0  0  0  0  0  0
   65.3736  -32.2062   26.3340 O   0  0  0  0  0  0
   64.5222  -32.2410   27.4281 C   0  0  0  0  0  0
   63.2550  -32.7997   27.1516 C   0  0  0  0  0  0
   62.2881  -32.9498   28.1649 C   0  0  0  0  0  0
   62.5729  -32.5239   29.4760 C   0  0  0  0  0  0
   63.8136  -31.9288   29.7687 C   0  0  0  0  0  0
   64.7808  -31.8022   28.7683 C   0  0  0  0  0  0
   66.0178  -31.1161   29.2378 C   0  0  0  0  0  0
   66.9041  -31.7209   29.0760 H   0  0  0  0  0  0
   65.9899  -30.2025   28.6693 H   0  0  0  0  0  0
   65.9963  -30.8440   30.2939 H   0  0  0  0  0  0
   63.9983  -31.5883   30.7775 H   0  0  0  0  0  0
   61.8289  -32.6343   30.2516 H   0  0  0  0  0  0
   61.3289  -33.3906   27.9348 H   0  0  0  0  0  0
   63.0286  -33.1332   26.1495 H   0  0  0  0  0  0
   71.8475  -34.6040   28.4817 H   0  0  0  0  0  0
   70.2033  -36.2104   29.4590 H   0  0  0  0  0  0
  1  2  1  0  0  0
  2  7  1  0  0  0
  2  3  2  0  0  0
  3  4  1  0  0  0
  3 41  1  0  0  0
  4  5  2  0  0  0
  4 40  1  0  0  0
  5 11  1  0  0  0
  5  6  1  0  0  0
  6  7  2  0  0  0
  6  9  1  0  0  0
  7  8  1  0  0  0
  9 10  2  0  0  0
  9 16  1  0  0  0
 10 11  1  0  0  0
 10 13  1  0  0  0
 11 12  1  0  0  0
 13 14  2  0  0  0
 13 15  1  0  0  0
 16 17  1  0  0  0
 16 18  1  0  0  0
 16 19  1  0  0  0
 19 20  1  0  0  0
 19 21  1  0  0  0
 19 22  1  0  0  0
 22 23  1  0  0  0
 22 24  1  0  0  0
 22 25  1  0  0  0
 25 26  1  0  0  0
 26 31  1  0  0  0
 26 27  2  0  0  0
 27 28  1  0  0  0
 27 39  1  0  0  0
 28 29  2  0  0  0
 28 38  1  0  0  0
 29 30  1  0  0  0
 29 37  1  0  0  0
 30 31  2  0  0  0
 30 36  1  0  0  0
 31 32  1  0  0  0
 32 33  1  0  0  0
 32 34  1  0  0  0
 32 35  1  0  0  0
M  CHG  1  15  -1
M  END
> <s_m_source_file>
ligprep_mcl1.smi

> <i_m_source_file_index>
4

> <i_lp_mmshare_version>
53161

> <i_f3d_flags>
0

> <s_epik_input>
W2NIXTFbY0hdW2NIXVtjSF1jKGMxMiljKGMoW25IXTIpQyg9TylbT0hdKVtDSDJdW0NIMl1bQ0gyXU9jM1tjSF1bY0hdW2NIXVtjSF1jM1tDSDNd

> <s_epik_cmdline>
J2VwaWtfcHl0aG9uJywgJy1waHQnLCAnMC4wJywgJy1waCcsICc3LjQnLCAnLXRuJywgJzgnLCAnLW1hJywgJzUwMCcsICctaW1hZScsICc8aW5maWxlLm1hZT4nLCAnLW9tYWUnLCAnPG91dGZpbGUubWFlPic=

> <r_lp_tautomer_probability>
1

> <r_epik_Ionization_Penalty>
0.0005

> <r_epik_Ionization_Penalty_Charging>
0.0005

> <r_epik_Ionization_Penalty_Neutral>
0

> <r_epik_State_Penalty>
-0

> <r_epik_Charging_Adjusted_Penalty>
0.000454828

> <i_epik_Tot_Q>
-1

> <i_epik_Tot_abs_Q>
1

> <s_lp_Force_Field>
S-OPLS

> <r_lp_Energy>
34.9348

> <b_lp_Chiralities_Consistent>
1

> <s_lp_Variant>
lig_28-1

> <s_i_glide_gridfile>
glide-grid_4HW3-MCL1

> <i_i_glide_lignum>
4

> <i_i_glide_rotatable_bonds>
6

> <r_i_docking_score>
-8.24724

> <r_i_glide_ligand_efficiency>
-0.358575

> <r_i_glide_ligand_efficiency_sa>
-1.01974

> <r_i_glide_ligand_efficiency_ln>
-1.99426

> <r_i_glide_gscore>
-8.24724

> <r_i_glide_lipo>
-4.84549

> <r_i_glide_hbond>
-0.350363

> <r_i_glide_metal>
-0

> <r_i_glide_rewards>
-1.94106

> <r_i_glide_evdw>
-35.5548

> <r_i_glide_ecoul>
-3.07514

> <r_i_glide_erotb>
1.16745

> <r_i_glide_esite>
-0.0387536

> <r_i_glide_emodel>
-59.3085

> <r_i_glide_energy>
-38.63

> <r_i_glide_einternal>
0.361229

> <i_i_glide_confnum>
6

> <i_i_glide_posenum>
4

> <r_i_glide_eff_state_penalty>
-0

> <r_i_glide_rmsd>
0.106468

> <s_glide_core_constrain_type>
snapped_core_restrain
$$$$