lig_7
                    3D
 Schrodinger Suite 2021-1.
 35 37  0  0  1  0            999 V2000
  -38.7363  -11.7128    4.7489 H   0  0  0  0  0  0
  -38.6999  -11.9600    5.6605 O   0  0  0  0  0  0
  -38.5813  -10.7931    6.4324 C   0  0  0  0  0  0
  -38.6086  -11.0588    7.9245 C   0  0  0  0  0  0
  -39.2501  -12.1964    8.4564 C   0  0  0  0  0  0
  -39.7212  -12.9253    7.8142 H   0  0  0  0  0  0
  -39.3579  -12.4370    9.7756 N   0  0  0  0  0  0
  -38.8097  -11.5499   10.6399 C   0  0  0  0  0  0
  -38.8927  -11.8525   12.0958 C   0  0  0  0  0  0
  -39.5875  -12.8557   12.4870 N   0  0  0  0  0  0
  -39.6372  -13.1735   13.8457 C   0  0  0  0  0  0
  -40.4445  -14.2480   14.2583 C   0  0  0  0  0  0
  -40.9958  -14.8252   13.5301 H   0  0  0  0  0  0
  -40.5587  -14.5434   15.6236 C   0  0  0  0  0  0
  -41.2043  -15.3452   15.9546 H   0  0  0  0  0  0
  -39.8675  -13.7685   16.5745 C   0  0  0  0  0  0
  -40.0885  -14.0557   17.8743 F   0  0  0  0  0  0
  -39.0267  -12.7098   16.1709 C   0  0  0  0  0  0
  -38.5040  -12.1196   16.9099 H   0  0  0  0  0  0
  -38.9104  -12.4080   14.7955 C   0  0  0  0  0  0
  -38.0510  -11.2740   14.2859 C   0  0  0  0  0  0
  -37.3139  -10.6348   15.0375 O   0  0  0  0  0  0
  -38.1804  -11.0438   12.9601 N   0  5  0  0  0  0
  -38.1738  -10.3675   10.1992 C   0  0  0  0  0  0
  -37.7585   -9.6571   10.8998 H   0  0  0  0  0  0
  -38.0707  -10.1208    8.8275 C   0  0  0  0  0  0
  -37.5967   -9.2117    8.4920 H   0  0  0  0  0  0
  -37.2577  -10.2005    5.9624 C   0  0  0  0  0  0
  -37.0659   -9.2138    6.3806 H   0  0  0  0  0  0
  -37.2353  -10.0754    4.8789 H   0  0  0  0  0  0
  -36.4272  -10.8555    6.2283 H   0  0  0  0  0  0
  -39.7586   -9.8948    6.0865 C   0  0  0  0  0  0
  -39.7184   -8.9512    6.6319 H   0  0  0  0  0  0
  -39.7586   -9.6557    5.0275 H   0  0  0  0  0  0
  -40.7106  -10.3723    6.3215 H   0  0  0  0  0  0
  1  2  1  0  0  0
  2  3  1  0  0  0
  3  4  1  0  0  0
  3 28  1  0  0  0
  3 32  1  0  0  0
  4 26  1  0  0  0
  4  5  2  0  0  0
  5  6  1  0  0  0
  5  7  1  0  0  0
  7  8  2  0  0  0
  8  9  1  0  0  0
  8 24  1  0  0  0
  9 23  1  0  0  0
  9 10  2  0  0  0
 10 11  1  0  0  0
 11 20  2  0  0  0
 11 12  1  0  0  0
 12 13  1  0  0  0
 12 14  2  0  0  0
 14 15  1  0  0  0
 14 16  1  0  0  0
 16 17  1  0  0  0
 16 18  2  0  0  0
 18 19  1  0  0  0
 18 20  1  0  0  0
 20 21  1  0  0  0
 21 22  2  0  0  0
 21 23  1  0  0  0
 24 25  1  0  0  0
 24 26  2  0  0  0
 26 27  1  0  0  0
 28 29  1  0  0  0
 28 30  1  0  0  0
 28 31  1  0  0  0
 32 33  1  0  0  0
 32 34  1  0  0  0
 32 35  1  0  0  0
M  CHG  1  23  -1
M  END
> <s_m_source_file>
ligprep_tnks2.smi

> <i_m_source_file_index>
21

> <i_lp_mmshare_version>
53161

> <i_f3d_flags>
0

> <s_epik_input>
W09IXUMoW0NIM10pKFtDSDNdKWMxW2NIXW5jKFtjSF1bY0hdMSktYyhuMilbbkhdYyg9TyljKGMyMylbY0hdYyhGKVtjSF1bY0hdMw==

> <s_epik_cmdline>
J2VwaWtfcHl0aG9uJywgJy1waHQnLCAnMC4wJywgJy1waCcsICc3LjQnLCAnLXRuJywgJzgnLCAnLW1hJywgJzUwMCcsICctaW1hZScsICc8aW5maWxlLm1hZT4nLCAnLW9tYWUnLCAnPG91dGZpbGUubWFlPic=

> <r_lp_tautomer_probability>
1

> <r_epik_Ionization_Penalty>
0.2666

> <r_epik_Ionization_Penalty_Charging>
0

> <r_epik_Ionization_Penalty_Neutral>
0.2666

> <r_epik_State_Penalty>
-0

> <r_epik_Charging_Adjusted_Penalty>
5.38214e-10

> <i_epik_Tot_Q>
-1

> <i_epik_Tot_abs_Q>
1

> <s_lp_Force_Field>
S-OPLS

> <r_lp_Energy>
53.8981

> <b_lp_Chiralities_Consistent>
1

> <s_lp_Variant>
lig_7-1

> <s_i_glide_gridfile>
glide-grid_4UI5-TNKS2

> <i_i_glide_lignum>
21

> <i_i_glide_rotatable_bonds>
3

> <r_i_docking_score>
-9.78612

> <r_i_glide_ligand_efficiency>
-0.444824

> <r_i_glide_ligand_efficiency_sa>
-1.24641

> <r_i_glide_ligand_efficiency_ln>
-2.39209

> <r_i_glide_gscore>
-9.78612

> <r_i_glide_lipo>
-4.11481

> <r_i_glide_hbond>
-0.592513

> <r_i_glide_metal>
-0

> <r_i_glide_rewards>
-2.44137

> <r_i_glide_evdw>
-40.5971

> <r_i_glide_ecoul>
-6.79305

> <r_i_glide_erotb>
0.412433

> <r_i_glide_esite>
-0.00105725

> <r_i_glide_emodel>
-69.9918

> <r_i_glide_energy>
-47.3901

> <r_i_glide_einternal>
0.302787

> <i_i_glide_confnum>
5

> <i_i_glide_posenum>
2

> <r_i_glide_eff_state_penalty>
-0

> <r_i_glide_rmsd>
0.0880124

> <s_glide_core_constrain_type>
snapped_core_restrain
$$$$