lig_25
                    3D
 Schrodinger Suite 2021-1.
 50 53  0  0  1  0            999 V2000
   30.7041   18.2139    8.8037 H   0  0  0  0  0  0
   29.7313   18.0067    9.2237 C   0  0  0  0  0  0
   29.0353   16.8340    8.8723 C   0  0  0  0  0  0
   29.4894   16.1591    8.1634 H   0  0  0  0  0  0
   27.7526   16.5536    9.3978 C   0  0  0  0  0  0
   27.0163   15.3414    8.9703 C   0  0  0  0  0  0
   27.7078   14.1336    8.7323 C   0  0  0  0  0  0
   28.7747   14.0723    8.8822 H   0  0  0  0  0  0
   27.0266   12.9784    8.3040 C   0  0  0  0  0  0
   27.5741   12.0627    8.1421 H   0  0  0  0  0  0
   25.6377   12.9994    8.1047 C   0  0  0  0  0  0
   25.0331   11.8214    7.7230 O   0  0  0  0  0  0
   23.6287   11.6941    7.9243 C   0  0  0  0  0  0
   23.3413   11.4430    9.4221 C   0  0  0  0  0  0
   22.2716   11.3804    9.6217 H   0  0  0  0  0  0
   23.7816   10.4996    9.7457 H   0  0  0  0  0  0
   23.7507   12.2175   10.0681 H   0  0  0  0  0  0
   23.2110   10.4599    7.1120 C   0  0  0  0  0  0
   22.1447   10.2559    7.2034 H   0  0  0  0  0  0
   23.4325   10.5920    6.0531 H   0  0  0  0  0  0
   23.7534    9.5736    7.4447 H   0  0  0  0  0  0
   22.9212   12.9426    7.3612 C   0  0  0  0  0  0
   21.8388   12.8454    7.4463 H   0  0  0  0  0  0
   23.1350   12.9758    6.2905 H   0  0  0  0  0  0
   23.4196   14.2564    8.0031 C   0  0  1  0  0  0
   23.0345   15.4622    7.1283 C   0  0  0  0  0  0
   23.4435   15.6481    5.9786 O   0  0  0  0  0  0
   22.2015   16.2376    7.8141 N   0  0  0  0  0  0
   21.6022   17.5019    7.4015 C   0  0  0  0  0  0
   22.0611   17.8930    6.4918 H   0  0  0  0  0  0
   20.5349   17.3733    7.2157 H   0  0  0  0  0  0
   21.7336   18.2495    8.1816 H   0  0  0  0  0  0
   21.9970   15.6447    9.0379 C   0  0  0  0  0  0
   21.1433   16.2543    9.9311 N   0  0  0  0  0  0
   21.0972   15.9545   10.9044 H   0  0  0  0  0  0
   22.6521   14.5517    9.2029 N   0  0  0  0  0  0
   24.9247   14.2092    8.2976 C   0  0  0  0  0  0
   25.6198   15.3583    8.7533 C   0  0  0  0  0  0
   25.0702   16.2765    8.9178 H   0  0  0  0  0  0
   27.1884   17.4799   10.3088 C   0  0  0  0  0  0
   26.1838   17.2948   10.6602 H   0  0  0  0  0  0
   27.8883   18.6602   10.6588 C   0  0  0  0  0  0
   27.2055   19.9041   11.6846 S   0  0  0  0  0  0
   26.5258   18.9251   12.9979 C   0  0  0  0  0  0
   25.9022   19.5515   13.6098 H   0  0  0  0  0  0
   26.0062   18.1278   12.4952 H   0  0  0  0  0  0
   27.2059   18.4141   13.6603 H   0  0  0  0  0  0
   29.1515   18.9231   10.1093 C   0  0  0  0  0  0
   29.6744   19.8348   10.3625 H   0  0  0  0  0  0
   20.7252   17.1712    9.8050 H   0  0  0  0  0  0
  1  2  1  0  0  0
  2 48  1  0  0  0
  2  3  2  0  0  0
  3  4  1  0  0  0
  3  5  1  0  0  0
  5  6  1  0  0  0
  5 40  2  0  0  0
  6 38  1  0  0  0
  6  7  2  0  0  0
  7  8  1  0  0  0
  7  9  1  0  0  0
  9 10  1  0  0  0
  9 11  2  0  0  0
 11 37  1  0  0  0
 11 12  1  0  0  0
 12 13  1  0  0  0
 13 14  1  0  0  0
 13 18  1  0  0  0
 13 22  1  0  0  0
 14 15  1  0  0  0
 14 16  1  0  0  0
 14 17  1  0  0  0
 18 19  1  0  0  0
 18 20  1  0  0  0
 18 21  1  0  0  0
 22 23  1  0  0  0
 22 24  1  0  0  0
 22 25  1  0  0  0
 25 36  1  0  0  0
 25 26  1  0  0  0
 25 37  1  0  0  0
 26 27  2  0  0  0
 26 28  1  0  0  0
 28 29  1  0  0  0
 28 33  1  0  0  0
 29 30  1  0  0  0
 29 31  1  0  0  0
 29 32  1  0  0  0
 33 34  1  0  0  0
 33 36  2  0  0  0
 34 35  1  0  0  0
 34 50  1  0  0  0
 37 38  2  0  0  0
 38 39  1  0  0  0
 40 41  1  0  0  0
 40 42  1  0  0  0
 42 43  1  0  0  0
 42 48  2  0  0  0
 43 44  1  0  0  0
 44 45  1  0  0  0
 44 46  1  0  0  0
 44 47  1  0  0  0
 48 49  1  0  0  0
M  END
> <s_m_source_file>
ligprep_bace_hunt.smi

> <i_m_source_file_index>
16

> <i_lp_mmshare_version>
53161

> <i_f3d_flags>
0

> <s_epik_input>
W0NIM11TYyhbY0hdMSlbY0hdW2NIXVtjSF1jMS1jKFtjSF0yKVtjSF1bY0hdYyhPQyhbQ0gzXSkoW0NIM10pW0NIMl0zKWMyW0NAQF0zNEMoPU8pTihbQ0gzXSlDKD1ONClbTkgyXQ==

> <s_epik_cmdline>
J2VwaWtfcHl0aG9uJywgJy1waHQnLCAnMC4wJywgJy1waCcsICc3LjQnLCAnLXRuJywgJzgnLCAnLW1hJywgJzUwMCcsICctaW1hZScsICc8aW5maWxlLm1hZT4nLCAnLW9tYWUnLCAnPG91dGZpbGUubWFlPic=

> <r_lp_tautomer_probability>
1

> <r_epik_Ionization_Penalty>
1.0455

> <r_epik_Ionization_Penalty_Charging>
0

> <r_epik_Ionization_Penalty_Neutral>
1.0455

> <r_epik_State_Penalty>
-0

> <r_epik_Charging_Adjusted_Penalty>
0

> <i_epik_Tot_Q>
0

> <i_epik_Tot_abs_Q>
0

> <s_epik_Chemistry_Notes>
This compound has an imine and may undergo hydrolysis.

> <s_lp_Force_Field>
S-OPLS

> <r_lp_Energy>
38.401

> <b_lp_Chiralities_Consistent>
1

> <s_lp_Variant>
lig_25-1

> <s_i_glide_gridfile>
glide-grid_4JPC-BACE_HUNT

> <i_i_glide_lignum>
16

> <i_i_glide_rotatable_bonds>
2

> <r_i_docking_score>
-6.97495

> <r_i_glide_ligand_efficiency>
-0.258331

> <r_i_glide_ligand_efficiency_sa>
-0.774994

> <r_i_glide_ligand_efficiency_ln>
-1.62365

> <r_i_glide_gscore>
-6.97495

> <r_i_glide_lipo>
-2.97298

> <r_i_glide_hbond>
-0.229004

> <r_i_glide_metal>
-0

> <r_i_glide_rewards>
-1.14735

> <r_i_glide_evdw>
-36.7787

> <r_i_glide_ecoul>
-6.03897

> <r_i_glide_erotb>
0.26676

> <r_i_glide_esite>
-0.147601

> <r_i_glide_emodel>
-57.2112

> <r_i_glide_energy>
-42.8176

> <r_i_glide_einternal>
1.13135

> <i_i_glide_confnum>
13

> <i_i_glide_posenum>
12

> <r_i_glide_eff_state_penalty>
-0

> <r_i_glide_rmsd>
0.106232

> <s_glide_core_constrain_type>
snapped_core_restrain
$$$$