lig_23486
                    3D
 Schrodinger Suite 2021-1.
 60 63  0  0  1  0            999 V2000
   52.3312    4.1396    7.7240 H   0  0  0  0  0  0
   52.3367    3.9980    6.6566 C   0  0  0  0  0  0
   51.1699    3.5793    6.0005 C   0  0  0  0  0  0
   51.1779    3.3480    4.6139 C   0  0  0  0  0  0
   52.3616    3.5482    3.8770 C   0  0  0  0  0  0
   53.5386    3.9495    4.5392 C   0  0  0  0  0  0
   53.5253    4.1834    5.9229 C   0  0  0  0  0  0
   54.4178    4.4895    6.4402 H   0  0  0  0  0  0
   54.4547    4.0705    3.9858 H   0  0  0  0  0  0
   52.3739    3.3082    2.3746 C   0  0  0  0  0  0
   51.5292    2.6984    2.0494 H   0  0  0  0  0  0
   53.2872    2.7745    2.0867 H   0  0  0  0  0  0
   52.3384    4.9156    1.4589 S   0  0  0  0  0  0
   52.4572    4.6135    0.0186 O   0  0  0  0  0  0
   53.2690    5.8606    2.0986 O   0  0  0  0  0  0
   50.7257    5.4856    1.7756 N   0  0  3  0  0  0
   49.7396    5.6630    0.6909 C   0  0  0  0  0  0
   49.4594    7.1579    0.4613 C   0  0  0  0  0  0
   49.0281    7.8600    1.7581 C   0  0  0  0  0  0
   50.1177    7.6501    2.8257 C   0  0  0  0  0  0
   50.4039    6.1571    3.0434 C   0  0  0  0  0  0
   49.5187    5.6769    3.4805 H   0  0  0  0  0  0
   51.2297    6.0411    3.7584 H   0  0  0  0  0  0
   51.0397    8.1667    2.5442 H   0  0  0  0  0  0
   49.7941    8.0667    3.7743 H   0  0  0  0  0  0
   48.1104    7.4066    2.1402 H   0  0  0  0  0  0
   48.7812    9.2799    1.5252 N   0  0  0  0  0  0
   49.4200    9.9407    1.9699 H   0  0  0  0  0  0
   47.5071    9.7697    1.1877 C   0  0  0  0  0  0
   46.5016    8.9634    0.6116 C   0  0  0  0  0  0
   45.2455    9.5142    0.3003 C   0  0  0  0  0  0
   44.9736   10.8739    0.5748 C   0  0  0  0  0  0
   45.9664   11.6957    1.1532 C   0  0  0  0  0  0
   47.2317   11.1297    1.4293 C   0  0  0  0  0  0
   48.0083   11.7411    1.8474 H   0  0  0  0  0  0
   45.6903   13.0935    1.4960 C   0  0  0  0  0  0
   46.1784   13.8400    2.5397 C   0  0  0  0  0  0
   45.7011   15.1758    2.5641 C   0  0  0  0  0  0
   44.8208   15.4499    1.5515 C   0  0  0  0  0  0
   44.5762   14.0432    0.5418 S   0  0  0  0  0  0
   44.0922   16.6874    1.2253 C   0  0  0  0  0  0
   43.5540   16.8256    0.1041 O   0  0  0  0  0  0
   44.0354   17.5878    2.0887 O   0  5  0  0  0  0
   46.0232   16.0676    3.5156 O   0  0  0  0  0  0
   47.2508   16.7487    3.3566 C   0  0  0  0  0  0
   47.1621   17.5200    2.5831 H   0  0  0  0  0  0
   48.0561   16.0527    3.0730 H   0  0  0  0  0  0
   47.6239   17.4031    4.6876 C   0  0  0  0  0  0
   48.7250   17.9984    4.7156 O   0  0  0  0  0  0
   46.8232   17.2853    5.6479 O   0  5  0  0  0  0
   47.2279   13.3306    3.7909 Cl  0  0  0  0  0  0
   43.9899   11.2751    0.3534 H   0  0  0  0  0  0
   44.4801    8.9077   -0.1642 H   0  0  0  0  0  0
   46.6639    7.9188    0.3969 H   0  0  0  0  0  0
   48.6841    7.2566   -0.3002 H   0  0  0  0  0  0
   50.3567    7.6449    0.0577 H   0  0  0  0  0  0
   48.8164    5.1596    0.9876 H   0  0  0  0  0  0
   50.0713    5.1919   -0.2288 H   0  0  0  0  0  0
   50.2747    3.0404    4.1180 H   0  0  0  0  0  0
   50.2664    3.4039    6.5642 H   0  0  0  0  0  0
  1  2  1  0  0  0
  2  7  1  0  0  0
  2  3  2  0  0  0
  3  4  1  0  0  0
  3 60  1  0  0  0
  4  5  2  0  0  0
  4 59  1  0  0  0
  5  6  1  0  0  0
  5 10  1  0  0  0
  6  7  2  0  0  0
  6  9  1  0  0  0
  7  8  1  0  0  0
 10 11  1  0  0  0
 10 12  1  0  0  0
 10 13  1  0  0  0
 13 14  2  0  0  0
 13 15  2  0  0  0
 13 16  1  0  0  0
 16 21  1  0  0  0
 16 17  1  0  0  0
 17 18  1  0  0  0
 17 57  1  0  0  0
 17 58  1  0  0  0
 18 19  1  0  0  0
 18 55  1  0  0  0
 18 56  1  0  0  0
 19 20  1  0  0  0
 19 26  1  0  0  0
 19 27  1  0  0  0
 20 21  1  0  0  0
 20 24  1  0  0  0
 20 25  1  0  0  0
 21 22  1  0  0  0
 21 23  1  0  0  0
 27 28  1  0  0  0
 27 29  1  0  0  0
 29 34  1  0  0  0
 29 30  2  0  0  0
 30 31  1  0  0  0
 30 54  1  0  0  0
 31 32  2  0  0  0
 31 53  1  0  0  0
 32 33  1  0  0  0
 32 52  1  0  0  0
 33 34  2  0  0  0
 33 36  1  0  0  0
 34 35  1  0  0  0
 36 40  1  0  0  0
 36 37  2  0  0  0
 37 38  1  0  0  0
 37 51  1  0  0  0
 38 39  2  0  0  0
 38 44  1  0  0  0
 39 40  1  0  0  0
 39 41  1  0  0  0
 41 42  2  0  0  0
 41 43  1  0  0  0
 44 45  1  0  0  0
 45 46  1  0  0  0
 45 47  1  0  0  0
 45 48  1  0  0  0
 48 49  2  0  0  0
 48 50  1  0  0  0
M  CHG  2  43  -1  50  -1
M  END
> <s_m_source_file>
ligprep_ptp1b.smi

> <i_m_source_file_index>
23

> <i_lp_mmshare_version>
53161

> <i_f3d_flags>
0

> <s_epik_input>
W2NIXTFbY0hdW2NIXVtjSF1bY0hdYzFbQ0gyXVMoPU8pKD1PKU4yW0NIMl1bQ0gyXVtDSF0oW0NIMl1bQ0gyXTIpW05IXWMzW2NIXVtjSF1bY0hdYyhbY0hdMyktYzRjKENsKWMoYyhzNClDKD1PKVtPSF0pT1tDSDJdQyg9TylbT0hd

> <s_epik_cmdline>
J2VwaWtfcHl0aG9uJywgJy1waHQnLCAnMC4wJywgJy1waCcsICc3LjQnLCAnLXRuJywgJzgnLCAnLW1hJywgJzUwMCcsICctaW1hZScsICc8aW5maWxlLm1hZT4nLCAnLW9tYWUnLCAnPG91dGZpbGUubWFlPic=

> <r_lp_tautomer_probability>
1

> <r_epik_Ionization_Penalty>
0.0005

> <r_epik_Ionization_Penalty_Charging>
0.0001

> <r_epik_Ionization_Penalty_Neutral>
0.0004

> <r_epik_State_Penalty>
-0

> <r_epik_Charging_Adjusted_Penalty>
9.31747e-05

> <i_epik_Tot_Q>
-2

> <i_epik_Tot_abs_Q>
2

> <s_lp_Force_Field>
S-OPLS

> <r_lp_Energy>
71.0203

> <b_lp_Chiralities_Consistent>
1

> <s_lp_Variant>
lig_23486-1

> <s_i_glide_gridfile>
glide-grid_2QBS-PTP1B

> <i_i_glide_lignum>
23

> <i_i_glide_rotatable_bonds>
10

> <r_i_docking_score>
-8.42989

> <r_i_glide_ligand_efficiency>
-0.227835

> <r_i_glide_ligand_efficiency_sa>
-0.759196

> <r_i_glide_ligand_efficiency_ln>
-1.82824

> <r_i_glide_gscore>
-8.42989

> <r_i_glide_lipo>
-1.26544

> <r_i_glide_hbond>
-1.27376

> <r_i_glide_metal>
-0

> <r_i_glide_rewards>
-0.0366918

> <r_i_glide_evdw>
-46.6674

> <r_i_glide_ecoul>
-29.0849

> <r_i_glide_erotb>
0.573521

> <r_i_glide_esite>
-0.0941478

> <r_i_glide_emodel>
-144.516

> <r_i_glide_energy>
-75.7522

> <r_i_glide_einternal>
4.78805

> <i_i_glide_confnum>
15

> <i_i_glide_posenum>
105

> <r_i_glide_eff_state_penalty>
-0

> <r_i_glide_rmsd>
0.0912441

> <s_glide_core_constrain_type>
snapped_core_restrain
$$$$