lig_CHEMBL1096003
                    3D
 Schrodinger Suite 2021-1.
 62 65  0  0  1  0            999 V2000
   34.2140    7.0186   16.2351 H   0  0  0  0  0  0
   33.2348    7.3700   15.9452 C   0  0  0  0  0  0
   32.0959    6.9700   16.6702 C   0  0  0  0  0  0
   32.2003    6.3078   17.5185 H   0  0  0  0  0  0
   30.8176    7.4269   16.2919 C   0  0  0  0  0  0
   29.9507    7.1113   16.8531 H   0  0  0  0  0  0
   30.6764    8.2964   15.1910 C   0  0  0  0  0  0
   29.3062    8.8209   14.7896 C   0  0  2  0  0  0
   28.5722    8.3734   15.4615 H   0  0  0  0  0  0
   28.9619    8.3639   13.4476 N   0  0  0  0  0  0
   29.1671    7.3999   13.2159 H   0  0  0  0  0  0
   27.9337    9.0075   12.7421 C   0  0  0  0  0  0
   27.4835    8.4619   11.5236 C   0  0  0  0  0  0
   27.9671    7.2898   11.1186 F   0  0  0  0  0  0
   26.5043    9.0863   10.7432 C   0  0  0  0  0  0
   26.1652    8.6384    9.8210 H   0  0  0  0  0  0
   25.9547   10.2855   11.2009 C   0  0  0  0  0  0
   24.7271   11.0916   10.3186 Cl  0  0  0  0  0  0
   26.3668   10.8422   12.4241 C   0  0  0  0  0  0
   25.9202   11.7638   12.7644 H   0  0  0  0  0  0
   27.3560   10.2111   13.1989 C   0  0  0  0  0  0
   27.7918   10.8390   14.5061 C   0  0  1  0  0  0
   27.7991   11.9224   14.3674 H   0  0  0  0  0  0
   26.8553   10.5076   15.5284 O   0  0  0  0  0  0
   27.0878   11.1508   16.7731 C   0  0  1  0  0  0
   27.1154   12.2261   16.5870 H   0  0  0  0  0  0
   25.8560   10.8683   17.6697 C   0  0  0  0  0  0
   25.4639   11.8014   18.0762 H   0  0  0  0  0  0
   25.0468   10.4328   17.0822 H   0  0  0  0  0  0
   26.1720    9.9842   18.7884 N   0  0  2  0  0  0
   26.9717    9.3780   18.6132 H   0  0  0  0  0  0
   24.9364    9.2208   19.7120 S   0  0  0  0  0  0
   25.5672    8.7614   20.9577 O   0  0  0  0  0  0
   23.7856   10.1336   19.7628 O   0  0  0  0  0  0
   24.4613    7.7286   18.7316 C   0  0  0  0  0  0
   23.8300    8.0522   17.9029 H   0  0  0  0  0  0
   25.3725    7.2998   18.3153 H   0  0  0  0  0  0
   23.7441    6.7250   19.6630 C   0  0  0  0  0  0
   24.4081    6.4225   20.4734 H   0  0  0  0  0  0
   22.9114    7.2462   20.1386 H   0  0  0  0  0  0
   23.2069    5.5074   18.9963 N   0  3  0  0  0  0
   22.3655    4.7233   19.9246 C   0  0  0  0  0  0
   22.9298    4.4206   20.8072 H   0  0  0  0  0  0
   21.9981    3.8183   19.4432 H   0  0  0  0  0  0
   21.4963    5.2976   20.2520 H   0  0  0  0  0  0
   24.2401    4.6475   18.3754 C   0  0  0  0  0  0
   24.9597    4.2933   19.1160 H   0  0  0  0  0  0
   24.7667    5.1787   17.5858 H   0  0  0  0  0  0
   23.7799    3.7701   17.9179 H   0  0  0  0  0  0
   28.4641   10.6961   17.3220 C   0  0  0  0  0  0
   28.6962   11.2174   18.2510 H   0  0  0  0  0  0
   28.4476    9.6287   17.5459 H   0  0  0  0  0  0
   29.5684   10.9509   16.2930 C   0  0  0  0  0  0
   29.7128   12.0282   16.1942 H   0  0  0  0  0  0
   30.5127   10.5520   16.6604 H   0  0  0  0  0  0
   29.2012   10.3659   14.9121 C   0  0  1  0  0  0
   29.9034   10.7930   14.1926 H   0  0  0  0  0  0
   31.8200    8.6776   14.4554 C   0  0  0  0  0  0
   31.7200    9.3286   13.5998 H   0  0  0  0  0  0
   33.0944    8.2144   14.8305 C   0  0  0  0  0  0
   33.9647    8.5134   14.2655 H   0  0  0  0  0  0
   22.5886    5.8081   18.2547 H   0  0  0  0  0  0
  1  2  1  0  0  0
  2 60  1  0  0  0
  2  3  2  0  0  0
  3  4  1  0  0  0
  3  5  1  0  0  0
  5  6  1  0  0  0
  5  7  2  0  0  0
  7  8  1  0  0  0
  7 58  1  0  0  0
  8 56  1  0  0  0
  8  9  1  0  0  0
  8 10  1  0  0  0
 10 11  1  0  0  0
 10 12  1  0  0  0
 12 21  1  0  0  0
 12 13  2  0  0  0
 13 14  1  0  0  0
 13 15  1  0  0  0
 15 16  1  0  0  0
 15 17  2  0  0  0
 17 18  1  0  0  0
 17 19  1  0  0  0
 19 20  1  0  0  0
 19 21  2  0  0  0
 21 22  1  0  0  0
 22 56  1  0  0  0
 22 23  1  0  0  0
 22 24  1  0  0  0
 24 25  1  0  0  0
 25 26  1  0  0  0
 25 27  1  0  0  0
 25 50  1  0  0  0
 27 28  1  0  0  0
 27 29  1  0  0  0
 27 30  1  0  0  0
 30 31  1  0  0  0
 30 32  1  0  0  0
 32 33  2  0  0  0
 32 34  2  0  0  0
 32 35  1  0  0  0
 35 36  1  0  0  0
 35 37  1  0  0  0
 35 38  1  0  0  0
 38 39  1  0  0  0
 38 40  1  0  0  0
 38 41  1  0  0  0
 41 42  1  0  0  0
 41 46  1  0  0  0
 41 62  1  0  0  0
 42 43  1  0  0  0
 42 44  1  0  0  0
 42 45  1  0  0  0
 46 47  1  0  0  0
 46 48  1  0  0  0
 46 49  1  0  0  0
 50 51  1  0  0  0
 50 52  1  0  0  0
 50 53  1  0  0  0
 53 54  1  0  0  0
 53 55  1  0  0  0
 53 56  1  0  0  0
 56 57  1  0  0  0
 58 59  1  0  0  0
 58 60  2  0  0  0
 60 61  1  0  0  0
M  CHG  1  41   1
M  END
> <s_m_source_file>
ligprep_eg5.smi

> <i_m_source_file_index>
28

> <i_lp_mmshare_version>
53161

> <i_f3d_flags>
0

> <s_epik_input>
RmMxW2NIXWMoQ2wpW2NIXWMoYzEyKVtDQEBIXTNbQ0BIXShbQ0BASF0oW05IXTIpYzRbY0hdW2NIXVtjSF1bY0hdW2NIXTQpW0NIMl1bQ0gyXVtDQEBIXShPMylbQ0gyXVtOSF1TKD1PKSg9TylbQ0gyXVtDSDJdTihbQ0gzXSlbQ0gzXQ==

> <s_epik_cmdline>
J2VwaWtfcHl0aG9uJywgJy1waHQnLCAnMC4wJywgJy1waCcsICc3LjQnLCAnLXRuJywgJzgnLCAnLW1hJywgJzUwMCcsICctaW1hZScsICc8aW5maWxlLm1hZT4nLCAnLW9tYWUnLCAnPG91dGZpbGUubWFlPic=

> <r_epik_Ionization_Penalty>
0.109

> <r_epik_Ionization_Penalty_Charging>
0.1079

> <r_epik_Ionization_Penalty_Neutral>
0.0011

> <r_epik_State_Penalty>
0.0977

> <r_epik_Charging_Adjusted_Penalty>
0.205654

> <i_epik_Tot_Q>
1

> <i_epik_Tot_abs_Q>
1

> <s_lp_Force_Field>
S-OPLS

> <r_lp_Energy>
46.8483

> <b_lp_Chiralities_Consistent>
1

> <s_lp_Variant>
lig_CHEMBL1096003-1

> <s_i_glide_gridfile>
glide-grid_3L9H-EG5

> <i_i_glide_lignum>
29

> <i_i_glide_rotatable_bonds>
7

> <r_i_docking_score>
-8.21135

> <r_i_glide_ligand_efficiency>
-0.256605

> <r_i_glide_ligand_efficiency_sa>
-0.814669

> <r_i_glide_ligand_efficiency_ln>
-1.83875

> <r_i_glide_gscore>
-8.30905

> <r_i_glide_lipo>
-4.67702

> <r_i_glide_hbond>
-0.04628

> <r_i_glide_metal>
-0

> <r_i_glide_rewards>
-0.560685

> <r_i_glide_evdw>
-49.5932

> <r_i_glide_ecoul>
-7.06906

> <r_i_glide_erotb>
0.521999

> <r_i_glide_esite>
-0.00704398

> <r_i_glide_emodel>
-87.0532

> <r_i_glide_energy>
-56.6622

> <r_i_glide_einternal>
3.87732

> <i_i_glide_confnum>
17

> <i_i_glide_posenum>
99

> <r_i_glide_eff_state_penalty>
0.0977

> <r_i_glide_rmsd>
0.0947285

> <s_glide_core_constrain_type>
snapped_core_restrain
$$$$