lig_48271249
                    3D
 Schrodinger Suite 2021-1.
 51 55  0  0  1  0            999 V2000
   11.8803    1.2268  -46.9183 C   0  0  0  0  0  0
   11.4510    1.8785  -45.6177 C   0  0  0  0  0  0
   12.1342    1.6353  -44.4118 C   0  0  0  0  0  0
   13.1790    0.8617  -44.1225 N   0  0  0  0  0  0
   13.3600    0.9803  -42.7440 N   0  0  0  0  0  0
   12.4187    1.7915  -42.2460 C   0  0  0  0  0  0
   11.7112    2.2287  -43.2972 N   0  0  0  0  0  0
   10.6750    3.1754  -43.3066 C   0  0  0  0  0  0
   10.2643    4.0230  -42.2387 C   0  0  0  0  0  0
    9.2187    4.9659  -42.3558 C   0  0  0  0  0  0
    8.5343    5.0814  -43.5728 C   0  0  0  0  0  0
    8.9189    4.2851  -44.6589 C   0  0  0  0  0  0
    9.9814    3.3684  -44.5484 C   0  0  0  0  0  0
   10.3719    2.6914  -45.6615 N   0  0  0  0  0  0
    8.8420    5.8572  -41.1762 C   0  0  0  0  0  0
    7.8713    5.2823  -40.2743 N   0  0  0  0  0  0
    7.4050    6.3163  -39.3617 C   0  0  0  0  0  0
    6.3107    5.7852  -38.4560 C   0  0  0  0  0  0
    6.7938    4.6545  -37.7524 O   0  0  0  0  0  0
    7.2679    3.6009  -38.5833 C   0  0  0  0  0  0
    8.3687    4.1499  -39.5002 C   0  0  0  0  0  0
   12.2872    1.9920  -40.8100 C   0  0  0  0  0  0
   13.4029    2.4087  -40.0723 C   0  0  0  0  0  0
   13.2854    2.5639  -38.6742 C   0  0  0  0  0  0
   12.0304    2.2925  -38.0910 C   0  0  0  0  0  0
   10.9543    1.8681  -38.7872 N   0  0  0  0  0  0
   11.0924    1.7033  -40.1201 C   0  0  0  0  0  0
   14.3239    2.9565  -37.8640 O   0  0  0  0  0  0
   15.5823    3.1804  -38.4933 C   0  0  0  0  0  0
   12.8023    1.6857  -47.2736 H   0  0  0  0  0  0
   12.0660    0.1628  -46.7731 H   0  0  0  0  0  0
   11.1275    1.3344  -47.6976 H   0  0  0  0  0  0
   10.7845    3.9978  -41.2970 H   0  0  0  0  0  0
    7.7261    5.7901  -43.6794 H   0  0  0  0  0  0
    8.4082    4.3972  -45.6054 H   0  0  0  0  0  0
    8.3700    6.8344  -41.4778 H   0  0  0  0  0  0
    9.7499    6.1230  -40.6316 H   0  0  0  0  0  0
    7.0073    7.1684  -39.9148 H   0  0  0  0  0  0
    8.2344    6.6895  -38.7581 H   0  0  0  0  0  0
    5.9956    6.5549  -37.7511 H   0  0  0  0  0  0
    5.4407    5.5082  -39.0500 H   0  0  0  0  0  0
    7.6538    2.7926  -37.9614 H   0  0  0  0  0  0
    6.4429    3.1923  -39.1689 H   0  0  0  0  0  0
    9.2274    4.4558  -38.9003 H   0  0  0  0  0  0
    8.7153    3.3510  -40.1516 H   0  0  0  0  0  0
   14.3252    2.5991  -40.5983 H   0  0  0  0  0  0
   11.8918    2.4028  -37.0257 H   0  0  0  0  0  0
   10.2208    1.3495  -40.6512 H   0  0  0  0  0  0
   16.3378    3.4460  -37.7533 H   0  0  0  0  0  0
   15.9244    2.2829  -39.0089 H   0  0  0  0  0  0
   15.5335    3.9946  -39.2146 H   0  0  0  0  0  0
  1  2  1  0  0  0
  1 30  1  0  0  0
  1 31  1  0  0  0
  1 32  1  0  0  0
  2 14  2  0  0  0
  2  3  1  0  0  0
  3  7  1  0  0  0
  3  4  2  0  0  0
  4  5  1  0  0  0
  5  6  2  0  0  0
  6  7  1  0  0  0
  6 22  1  0  0  0
  7  8  1  0  0  0
  8 13  1  0  0  0
  8  9  2  0  0  0
  9 10  1  0  0  0
  9 33  1  0  0  0
 10 11  2  0  0  0
 10 15  1  0  0  0
 11 12  1  0  0  0
 11 34  1  0  0  0
 12 13  2  0  0  0
 12 35  1  0  0  0
 13 14  1  0  0  0
 15 16  1  0  0  0
 15 36  1  0  0  0
 15 37  1  0  0  0
 16 21  1  0  0  0
 16 17  1  0  0  0
 17 18  1  0  0  0
 17 38  1  0  0  0
 17 39  1  0  0  0
 18 19  1  0  0  0
 18 40  1  0  0  0
 18 41  1  0  0  0
 19 20  1  0  0  0
 20 21  1  0  0  0
 20 42  1  0  0  0
 20 43  1  0  0  0
 21 44  1  0  0  0
 21 45  1  0  0  0
 22 27  1  0  0  0
 22 23  2  0  0  0
 23 24  1  0  0  0
 23 46  1  0  0  0
 24 25  2  0  0  0
 24 28  1  0  0  0
 25 26  1  0  0  0
 25 47  1  0  0  0
 26 27  2  0  0  0
 27 48  1  0  0  0
 28 29  1  0  0  0
 29 49  1  0  0  0
 29 50  1  0  0  0
 29 51  1  0  0  0
M  END
> <s_m_source_file>
ligprep_pde2.smi

> <i_m_source_file_index>
5

> <i_lp_mmshare_version>
53161

> <i_f3d_flags>
0

> <s_epik_input>
W2NIXTFuW2NIXWMoT1tDSDNdKVtjSF1jMS1jKG5uMiluKGMyMyljNGMobmMzW0NIM10pW2NIXVtjSF1jKFtjSF00KVtDSDJdTjVbQ0gyXVtDSDJdT1tDSDJdW0NIMl01

> <s_epik_cmdline>
J2VwaWtfcHl0aG9uJywgJy1waHQnLCAnMC4wJywgJy1waCcsICc3LjQnLCAnLXRuJywgJzgnLCAnLW1hJywgJzUwMCcsICctaW1hZScsICc8aW5maWxlLm1hZT4nLCAnLW9tYWUnLCAnPG91dGZpbGUubWFlPic=

> <r_lp_tautomer_probability>
1

> <r_epik_Ionization_Penalty>
0.1302

> <r_epik_Ionization_Penalty_Charging>
0

> <r_epik_Ionization_Penalty_Neutral>
0.1302

> <r_epik_State_Penalty>
0.1195

> <r_epik_Charging_Adjusted_Penalty>
0.119465

> <i_epik_Tot_Q>
0

> <i_epik_Tot_abs_Q>
0

> <s_lp_Force_Field>
S-OPLS

> <r_lp_Energy>
52.1979

> <b_lp_Chiralities_Consistent>
1

> <s_lp_Variant>
lig_48271249-1

> <s_i_glide_gridfile>
glide-grid_6C7E-PDE2

> <i_i_glide_lignum>
5

> <i_i_glide_rotatable_bonds>
4

> <r_i_docking_score>
-7.79648

> <r_i_glide_ligand_efficiency>
-0.268844

> <r_i_glide_ligand_efficiency_sa>
-0.825974

> <r_i_glide_ligand_efficiency_ln>
-1.7852

> <r_i_glide_gscore>
-7.91598

> <r_i_glide_lipo>
-3.13956

> <r_i_glide_hbond>
-0.602332

> <r_i_glide_metal>
-0

> <r_i_glide_rewards>
-1.38102

> <r_i_glide_evdw>
-38.0577

> <r_i_glide_ecoul>
-8.14439

> <r_i_glide_erotb>
0.38384

> <r_i_glide_esite>
-0.052364

> <r_i_glide_emodel>
-62.6307

> <r_i_glide_energy>
-46.2021

> <r_i_glide_einternal>
3.81227

> <i_i_glide_confnum>
42

> <i_i_glide_posenum>
39

> <r_i_glide_eff_state_penalty>
0.1195

> <r_i_glide_rmsd>
0.107681

> <s_glide_core_constrain_type>
snapped_core_restrain
$$$$