lig_0738
                    3D
 Schrodinger Suite 2021-1.
 52 55  0  0  1  0            999 V2000
  -18.1744   -9.9340   33.2961 H   0  0  0  0  0  0
  -18.5716  -10.7882   33.8337 C   0  0  0  0  0  0
  -18.6199  -10.7871   35.1976 C   0  0  0  0  0  0
  -18.2830   -9.9677   35.8219 H   0  0  0  0  0  0
  -19.1322  -11.8949   35.7989 N   0  0  0  0  0  0
  -19.6038  -13.0038   35.0483 C   0  0  0  0  0  0
  -20.0445  -13.9512   35.8821 N   0  0  0  0  0  0
  -19.8857  -13.4512   37.1672 C   0  0  0  0  0  0
  -20.3000  -14.2615   38.3549 C   0  0  0  0  0  0
  -19.8851  -13.8544   39.2774 H   0  0  0  0  0  0
  -21.3860  -14.2790   38.4584 H   0  0  0  0  0  0
  -19.9552  -15.2937   38.2690 H   0  0  0  0  0  0
  -19.3108  -12.2085   37.1388 C   0  0  0  0  0  0
  -18.9320  -11.2883   38.2064 C   0  0  0  0  0  0
  -19.9183  -10.7536   39.0546 C   0  0  0  0  0  0
  -20.9378  -11.0702   38.8985 H   0  0  0  0  0  0
  -19.5872   -9.8182   40.0643 C   0  0  0  0  0  0
  -20.5211   -9.2656   40.9172 O   0  0  0  0  0  0
  -21.8910   -9.5869   40.7216 C   0  0  0  0  0  0
  -22.4951   -9.0489   41.4510 H   0  0  0  0  0  0
  -22.2324   -9.2893   39.7285 H   0  0  0  0  0  0
  -22.0756  -10.6522   40.8644 H   0  0  0  0  0  0
  -18.2311   -9.4361   40.2213 C   0  0  0  0  0  0
  -17.8533   -8.5275   41.1791 O   0  0  0  0  0  0
  -18.3092   -7.2036   40.9429 C   0  0  0  0  0  0
  -17.7727   -6.5155   41.5964 H   0  0  0  0  0  0
  -18.1267   -6.8954   39.9106 H   0  0  0  0  0  0
  -19.3720   -7.0903   41.1575 H   0  0  0  0  0  0
  -17.2206  -10.0015   39.4116 C   0  0  0  0  0  0
  -15.9205   -9.6037   39.6505 O   0  0  0  0  0  0
  -14.8779  -10.2619   38.9461 C   0  0  0  0  0  0
  -13.9137   -9.8945   39.2964 H   0  0  0  0  0  0
  -14.9341  -10.0672   37.8746 H   0  0  0  0  0  0
  -14.8990  -11.3385   39.1197 H   0  0  0  0  0  0
  -17.5862  -10.9173   38.3957 C   0  0  0  0  0  0
  -16.8425  -11.3375   37.7370 H   0  0  0  0  0  0
  -19.5007  -12.8947   33.6170 C   0  0  0  0  0  0
  -19.8858  -13.9491   32.7570 N   0  0  0  0  0  0
  -21.1765  -14.6065   32.9587 C   0  0  0  0  0  0
  -21.4557  -14.6811   34.0062 H   0  0  0  0  0  0
  -21.9459  -13.9984   32.4803 H   0  0  0  0  0  0
  -21.1684  -16.0145   32.3341 C   0  0  0  0  0  0
  -22.1654  -16.4520   32.3911 H   0  0  0  0  0  0
  -20.5034  -16.6806   32.8860 H   0  0  0  0  0  0
  -20.7699  -15.9401   30.9656 O   0  0  0  0  0  0
  -19.4558  -15.4087   30.8214 C   0  0  0  0  0  0
  -19.1787  -15.4107   29.7668 H   0  0  0  0  0  0
  -18.7324  -16.0451   31.3359 H   0  0  0  0  0  0
  -19.4155  -13.9730   31.3714 C   0  0  0  0  0  0
  -20.0466  -13.3193   30.7667 H   0  0  0  0  0  0
  -18.3946  -13.5973   31.2994 H   0  0  0  0  0  0
  -19.0102  -11.8235   33.0515 N   0  0  0  0  0  0
  1  2  1  0  0  0
  2 52  1  0  0  0
  2  3  2  0  0  0
  3  4  1  0  0  0
  3  5  1  0  0  0
  5 13  1  0  0  0
  5  6  1  0  0  0
  6  7  2  0  0  0
  6 37  1  0  0  0
  7  8  1  0  0  0
  8  9  1  0  0  0
  8 13  2  0  0  0
  9 10  1  0  0  0
  9 11  1  0  0  0
  9 12  1  0  0  0
 13 14  1  0  0  0
 14 35  1  0  0  0
 14 15  2  0  0  0
 15 16  1  0  0  0
 15 17  1  0  0  0
 17 18  1  0  0  0
 17 23  2  0  0  0
 18 19  1  0  0  0
 19 20  1  0  0  0
 19 21  1  0  0  0
 19 22  1  0  0  0
 23 24  1  0  0  0
 23 29  1  0  0  0
 24 25  1  0  0  0
 25 26  1  0  0  0
 25 27  1  0  0  0
 25 28  1  0  0  0
 29 30  1  0  0  0
 29 35  2  0  0  0
 30 31  1  0  0  0
 31 32  1  0  0  0
 31 33  1  0  0  0
 31 34  1  0  0  0
 35 36  1  0  0  0
 37 38  1  0  0  0
 37 52  2  0  0  0
 38 49  1  0  0  0
 38 39  1  0  0  0
 39 40  1  0  0  0
 39 41  1  0  0  0
 39 42  1  0  0  0
 42 43  1  0  0  0
 42 44  1  0  0  0
 42 45  1  0  0  0
 45 46  1  0  0  0
 46 47  1  0  0  0
 46 48  1  0  0  0
 46 49  1  0  0  0
 49 50  1  0  0  0
 49 51  1  0  0  0
M  END
> <s_m_source_file>
ligprep_pde10.smi

> <i_m_source_file_index>
4

> <i_lp_mmshare_version>
53161

> <i_f3d_flags>
0

> <s_epik_input>
W0NIMl0xW0NIMl1PW0NIMl1bQ0gyXU4xYyhuW2NIXVtjSF0yKWMobjIzKW5jKFtDSDNdKWMzLWM0W2NIXWMoT1tDSDNdKWMoT1tDSDNdKWMoW2NIXTQpT1tDSDNd

> <s_epik_cmdline>
J2VwaWtfcHl0aG9uJywgJy1waHQnLCAnMC4wJywgJy1waCcsICc3LjQnLCAnLXRuJywgJzgnLCAnLW1hJywgJzUwMCcsICctaW1hZScsICc8aW5maWxlLm1hZT4nLCAnLW9tYWUnLCAnPG91dGZpbGUubWFlPic=

> <r_lp_tautomer_probability>
1

> <r_epik_Ionization_Penalty>
0.0006

> <r_epik_Ionization_Penalty_Charging>
0.0006

> <r_epik_Ionization_Penalty_Neutral>
0

> <r_epik_State_Penalty>
-0

> <r_epik_Charging_Adjusted_Penalty>
0.000562334

> <i_epik_Tot_Q>
0

> <i_epik_Tot_abs_Q>
0

> <s_lp_Force_Field>
S-OPLS

> <r_lp_Energy>
47.8219

> <b_lp_Chiralities_Consistent>
1

> <s_lp_Variant>
lig_0738-1

> <s_i_glide_gridfile>
glide-grid_4BBX-PDE10

> <i_i_glide_lignum>
5

> <i_i_glide_rotatable_bonds>
5

> <r_i_docking_score>
-7.55836

> <r_i_glide_ligand_efficiency>
-0.269942

> <r_i_glide_ligand_efficiency_sa>
-0.819701

> <r_i_glide_ligand_efficiency_ln>
-1.74469

> <r_i_glide_gscore>
-7.55836

> <r_i_glide_lipo>
-3.221

> <r_i_glide_hbond>
-0.288608

> <r_i_glide_metal>
-0

> <r_i_glide_rewards>
-1.87295

> <r_i_glide_evdw>
-38.2281

> <r_i_glide_ecoul>
-3.51681

> <r_i_glide_erotb>
0.263118

> <r_i_glide_esite>
0

> <r_i_glide_emodel>
-59.7302

> <r_i_glide_energy>
-41.7449

> <r_i_glide_einternal>
0.41532

> <i_i_glide_confnum>
1

> <i_i_glide_posenum>
8

> <r_i_glide_eff_state_penalty>
-0

> <r_i_glide_rmsd>
0.0907333

> <s_glide_core_constrain_type>
snapped_core_restrain
$$$$