lig_CHEMBL3265018
                    3D
 Schrodinger Suite 2021-1.
 47 51  0  0  1  0            999 V2000
   -0.8819    5.1760    9.0016 H   0  0  0  0  0  0
   -0.0925    4.6355    9.5042 C   0  0  0  0  0  0
    1.1476    4.6113    9.0228 N   0  0  0  0  0  0
    1.8003    3.8298    9.9604 C   0  0  0  0  0  0
    3.1457    3.4187   10.0293 C   0  0  0  0  0  0
    3.8386    3.7372    9.2658 H   0  0  0  0  0  0
    3.5761    2.5836   11.0803 C   0  0  0  0  0  0
    4.6077    2.2679   11.0958 H   0  0  0  0  0  0
    2.6853    2.1358   12.0885 C   0  0  0  0  0  0
    3.1500    1.2437   13.1695 C   0  0  0  0  0  0
    4.4251    1.3347   13.6659 C   0  0  0  0  0  0
    5.1649    2.0527   13.3313 H   0  0  0  0  0  0
    4.7533    0.5204   14.6978 N   0  0  0  0  0  0
    3.8350   -0.4057   15.2418 C   0  0  0  0  0  0
    4.3901   -1.0546   16.2687 N   0  0  0  0  0  0
    5.6529   -0.4988   16.4195 C   0  0  0  0  0  0
    6.2863   -0.8066   17.2354 H   0  0  0  0  0  0
    5.9085    0.4195   15.4420 C   0  0  0  0  0  0
    6.7612    1.0428   15.2192 H   0  0  0  0  0  0
    2.5416   -0.4435   14.6430 C   0  0  0  0  0  0
    1.6054   -1.3393   15.1935 N   0  0  0  0  0  0
    2.0089   -1.9058   15.9288 H   0  0  0  0  0  0
    0.2270   -1.5358   14.9890 C   0  0  0  0  0  0
   -0.3784   -2.5713   15.7313 C   0  0  0  0  0  0
    0.2118   -3.1725   16.4111 H   0  0  0  0  0  0
   -1.7552   -2.8344   15.6145 C   0  0  0  0  0  0
   -2.2005   -3.6263   16.2014 H   0  0  0  0  0  0
   -2.5515   -2.0637   14.7464 C   0  0  0  0  0  0
   -3.8935   -2.3240   14.6570 O   0  0  0  0  0  0
   -4.2310   -3.1114   13.5264 C   0  0  0  0  0  0
   -5.3056   -3.2903   13.5122 H   0  0  0  0  0  0
   -3.7316   -4.0798   13.5681 H   0  0  0  0  0  0
   -3.9643   -2.6186   12.5901 H   0  0  0  0  0  0
   -1.9762   -1.0157   13.9962 C   0  0  0  0  0  0
   -2.8250   -0.2762   13.1945 O   0  0  0  0  0  0
   -2.2533    0.6865   12.3193 C   0  0  0  0  0  0
   -3.0356    1.1075   11.6891 H   0  0  0  0  0  0
   -1.7985    1.5079   12.8758 H   0  0  0  0  0  0
   -1.5103    0.2390   11.6583 H   0  0  0  0  0  0
   -0.5843   -0.7662   14.1203 C   0  0  0  0  0  0
   -0.1506    0.0364   13.5552 H   0  0  0  0  0  0
    2.2248    0.3388   13.6506 N   0  0  0  0  0  0
    1.3428    2.5739   12.0420 C   0  0  0  0  0  0
    0.6450    2.2773   12.8104 H   0  0  0  0  0  0
    0.9125    3.3958   10.9887 C   0  0  0  0  0  0
   -0.3051    3.9562   10.6428 N   0  0  0  0  0  0
   -1.1803    3.9125   11.1435 H   0  0  0  0  0  0
  1  2  1  0  0  0
  2 46  1  0  0  0
  2  3  2  0  0  0
  3  4  1  0  0  0
  4 45  2  0  0  0
  4  5  1  0  0  0
  5  6  1  0  0  0
  5  7  2  0  0  0
  7  8  1  0  0  0
  7  9  1  0  0  0
  9 10  1  0  0  0
  9 43  2  0  0  0
 10 42  1  0  0  0
 10 11  2  0  0  0
 11 12  1  0  0  0
 11 13  1  0  0  0
 13 18  1  0  0  0
 13 14  1  0  0  0
 14 15  2  0  0  0
 14 20  1  0  0  0
 15 16  1  0  0  0
 16 17  1  0  0  0
 16 18  2  0  0  0
 18 19  1  0  0  0
 20 21  1  0  0  0
 20 42  2  0  0  0
 21 22  1  0  0  0
 21 23  1  0  0  0
 23 40  1  0  0  0
 23 24  2  0  0  0
 24 25  1  0  0  0
 24 26  1  0  0  0
 26 27  1  0  0  0
 26 28  2  0  0  0
 28 29  1  0  0  0
 28 34  1  0  0  0
 29 30  1  0  0  0
 30 31  1  0  0  0
 30 32  1  0  0  0
 30 33  1  0  0  0
 34 35  1  0  0  0
 34 40  2  0  0  0
 35 36  1  0  0  0
 36 37  1  0  0  0
 36 38  1  0  0  0
 36 39  1  0  0  0
 40 41  1  0  0  0
 43 44  1  0  0  0
 43 45  1  0  0  0
 45 46  1  0  0  0
 46 47  1  0  0  0
M  END
> <s_m_source_file>
ligprep_syk.smi

> <i_m_source_file_index>
25

> <i_lp_mmshare_version>
53161

> <i_f3d_flags>
0

> <s_epik_input>
bjFbY0hdW25IXWMoYzEyKVtjSF1jKFtjSF1bY0hdMiktYyhbY0hdMyluYyhjKG4zNCluW2NIXVtjSF00KVtOSF1jNVtjSF1bY0hdYyhPW0NIM10pYyhbY0hdNSlPW0NIM10=

> <s_epik_cmdline>
J2VwaWtfcHl0aG9uJywgJy1waHQnLCAnMC4wJywgJy1waCcsICc3LjQnLCAnLXRuJywgJzgnLCAnLW1hJywgJzUwMCcsICctaW1hZScsICc8aW5maWxlLm1hZT4nLCAnLW9tYWUnLCAnPG91dGZpbGUubWFlPic=

> <r_lp_tautomer_probability>
1

> <r_epik_Ionization_Penalty>
0.0193

> <r_epik_Ionization_Penalty_Charging>
0.0009

> <r_epik_Ionization_Penalty_Neutral>
0.0185

> <r_epik_State_Penalty>
-0

> <r_epik_Charging_Adjusted_Penalty>
0.000851558

> <i_epik_Tot_Q>
0

> <i_epik_Tot_abs_Q>
0

> <s_lp_Force_Field>
S-OPLS

> <r_lp_Energy>
44.3022

> <b_lp_Chiralities_Consistent>
1

> <s_lp_Variant>
lig_CHEMBL3265018-1

> <s_i_glide_gridfile>
glide-grid_4PV0-SYK

> <i_i_glide_lignum>
25

> <i_i_glide_rotatable_bonds>
5

> <r_i_docking_score>
-8.01377

> <r_i_glide_ligand_efficiency>
-0.276337

> <r_i_glide_ligand_efficiency_sa>
-0.848994

> <r_i_glide_ligand_efficiency_ln>
-1.83495

> <r_i_glide_gscore>
-8.01377

> <r_i_glide_lipo>
-2.72985

> <r_i_glide_hbond>
-0.329503

> <r_i_glide_metal>
-0

> <r_i_glide_rewards>
-2.32701

> <r_i_glide_evdw>
-46.2221

> <r_i_glide_ecoul>
-6.43182

> <r_i_glide_erotb>
0.651767

> <r_i_glide_esite>
-0.00329152

> <r_i_glide_emodel>
-84.18

> <r_i_glide_energy>
-52.6539

> <r_i_glide_einternal>
-2.7068e-07

> <i_i_glide_confnum>
2

> <i_i_glide_posenum>
1

> <r_i_glide_eff_state_penalty>
-0

> <r_i_glide_rmsd>
0.0884276

> <s_glide_core_constrain_type>
snapped_core_restrain
$$$$