lig_53
                    3D
 Schrodinger Suite 2021-1.
 56 60  0  0  1  0            999 V2000
   96.7194   45.9611  267.0785 H   0  0  0  0  0  0
   96.0056   46.7589  267.2236 C   0  0  0  0  0  0
   94.7426   46.5289  266.8147 N   0  0  0  0  0  0
   93.8392   47.5273  266.9615 C   0  0  0  0  0  0
   94.2152   48.7749  267.5498 C   0  0  0  0  0  0
   95.4782   48.9603  268.0139 N   0  0  0  0  0  0
   96.3729   47.9715  267.8330 C   0  0  0  0  0  0
   97.3819   48.1552  268.1715 H   0  0  0  0  0  0
   93.2522   49.8090  267.6504 C   0  0  0  0  0  0
   93.5765   51.1104  268.2581 C   0  0  0  0  0  0
   94.6042   51.9475  267.7702 C   0  0  0  0  0  0
   95.1845   51.6321  266.9150 H   0  0  0  0  0  0
   94.8696   53.1972  268.3712 C   0  0  0  0  0  0
   95.6486   53.8267  267.9672 H   0  0  0  0  0  0
   94.1081   53.6531  269.4714 C   0  0  0  0  0  0
   94.0720   54.8320  270.2737 C   0  0  0  0  0  0
   94.6979   55.7039  270.1657 H   0  0  0  0  0  0
   93.1077   54.6220  271.2171 C   0  0  0  0  0  0
   92.7747   55.2413  272.0137 H   0  0  0  0  0  0
   92.5171   53.3916  271.0451 N   0  0  0  0  0  0
   91.4491   52.8335  271.8503 C   0  0  0  0  0  0
   90.5971   52.5923  271.2138 H   0  0  0  0  0  0
   91.1736   53.5867  272.5768 H   0  0  0  0  0  0
   91.9740   51.6303  272.6063 C   0  0  0  0  0  0
   92.3720   52.0201  273.5311 H   0  0  0  0  0  0
   92.7650   51.1714  272.0132 H   0  0  0  0  0  0
   91.0445   50.5449  273.0843 C   0  0  0  0  0  0
   91.5737   49.6112  273.2141 H   0  0  0  0  0  0
   90.2109   50.3737  272.4140 H   0  0  0  0  0  0
   90.7206   50.7714  274.0964 H   0  0  0  0  0  0
   93.1265   52.7701  269.9839 C   0  0  0  0  0  0
   92.8399   51.5391  269.3725 C   0  0  0  0  0  0
   92.0465   50.9223  269.7663 H   0  0  0  0  0  0
   91.9309   49.5747  267.2127 C   0  0  0  0  0  0
   91.1961   50.3601  267.3156 H   0  0  0  0  0  0
   91.5467   48.3425  266.6577 C   0  0  0  0  0  0
   90.2015   48.1476  266.3112 N   0  0  0  0  0  0
   89.5184   48.6748  266.8469 H   0  0  0  0  0  0
   89.6439   47.3192  265.3209 C   0  0  0  0  0  0
   90.3765   46.9307  264.1774 C   0  0  0  0  0  0
   91.3958   47.2500  264.0291 H   0  0  0  0  0  0
   89.8794   46.1340  263.2134 N   0  0  0  0  0  0
   88.6137   45.6988  263.3090 C   0  0  0  0  0  0
   88.2645   45.0511  262.5207 H   0  0  0  0  0  0
   87.7784   46.0397  264.3797 C   0  0  0  0  0  0
   86.7705   45.6521  264.4291 H   0  0  0  0  0  0
   88.2970   46.8714  265.3899 C   0  0  0  0  0  0
   87.2233   47.2006  266.7856 S   0  0  0  0  0  0
   85.8315   47.1336  266.3171 O   0  0  0  0  0  0
   87.6722   48.4154  267.4771 O   0  0  0  0  0  0
   87.5471   45.7704  267.8891 C   0  0  0  0  0  0
   86.9324   45.8609  268.7846 H   0  0  0  0  0  0
   87.2964   44.8469  267.3624 H   0  0  0  0  0  0
   88.6012   45.7594  268.1603 H   0  0  0  0  0  0
   92.5120   47.3283  266.5306 C   0  0  0  0  0  0
   92.2318   46.3715  266.1188 H   0  0  0  0  0  0
  1  2  1  0  0  0
  2  7  1  0  0  0
  2  3  2  0  0  0
  3  4  1  0  0  0
  4 55  1  0  0  0
  4  5  2  0  0  0
  5  6  1  0  0  0
  5  9  1  0  0  0
  6  7  2  0  0  0
  7  8  1  0  0  0
  9 10  1  0  0  0
  9 34  2  0  0  0
 10 32  1  0  0  0
 10 11  2  0  0  0
 11 12  1  0  0  0
 11 13  1  0  0  0
 13 14  1  0  0  0
 13 15  2  0  0  0
 15 31  1  0  0  0
 15 16  1  0  0  0
 16 17  1  0  0  0
 16 18  2  0  0  0
 18 19  1  0  0  0
 18 20  1  0  0  0
 20 21  1  0  0  0
 20 31  1  0  0  0
 21 22  1  0  0  0
 21 23  1  0  0  0
 21 24  1  0  0  0
 24 25  1  0  0  0
 24 26  1  0  0  0
 24 27  1  0  0  0
 27 28  1  0  0  0
 27 29  1  0  0  0
 27 30  1  0  0  0
 31 32  2  0  0  0
 32 33  1  0  0  0
 34 35  1  0  0  0
 34 36  1  0  0  0
 36 37  1  0  0  0
 36 55  2  0  0  0
 37 38  1  0  0  0
 37 39  1  0  0  0
 39 47  1  0  0  0
 39 40  2  0  0  0
 40 41  1  0  0  0
 40 42  1  0  0  0
 42 43  2  0  0  0
 43 44  1  0  0  0
 43 45  1  0  0  0
 45 46  1  0  0  0
 45 47  2  0  0  0
 47 48  1  0  0  0
 48 49  2  0  0  0
 48 50  2  0  0  0
 48 51  1  0  0  0
 51 52  1  0  0  0
 51 53  1  0  0  0
 51 54  1  0  0  0
 55 56  1  0  0  0
M  END
> <s_m_source_file>
ligprep_pfkfb3.smi

> <i_m_source_file_index>
25

> <i_lp_mmshare_version>
53161

> <i_f3d_flags>
0

> <s_epik_input>
W0NIM11bQ0gyXVtDSDJdbihbY0hdW2NIXTEpYyhjMTIpW2NIXWMoW2NIXVtjSF0yKS1jKGMoYzM0KW5bY0hdW2NIXW4zKVtjSF1jKFtjSF00KVtOSF1jNVtjSF1uW2NIXVtjSF1jNVMoPU8pKD1PKVtDSDNd

> <s_epik_cmdline>
J2VwaWtfcHl0aG9uJywgJy1waHQnLCAnMC4wJywgJy1waCcsICc3LjQnLCAnLXRuJywgJzgnLCAnLW1hJywgJzUwMCcsICctaW1hZScsICc8aW5maWxlLm1hZT4nLCAnLW9tYWUnLCAnPG91dGZpbGUubWFlPic=

> <r_lp_tautomer_probability>
1

> <r_epik_Ionization_Penalty>
0

> <r_epik_Ionization_Penalty_Charging>
0

> <r_epik_Ionization_Penalty_Neutral>
0

> <r_epik_State_Penalty>
-0

> <r_epik_Charging_Adjusted_Penalty>
0

> <i_epik_Tot_Q>
0

> <i_epik_Tot_abs_Q>
0

> <s_lp_Force_Field>
S-OPLS

> <r_lp_Energy>
49.4674

> <b_lp_Chiralities_Consistent>
1

> <s_lp_Variant>
lig_53-1

> <s_i_glide_gridfile>
glide-grid_6HVI-PFKFB3

> <i_i_glide_lignum>
25

> <i_i_glide_rotatable_bonds>
6

> <r_i_docking_score>
-10.9359

> <r_i_glide_ligand_efficiency>
-0.331391

> <r_i_glide_ligand_efficiency_sa>
-1.06295

> <r_i_glide_ligand_efficiency_ln>
-2.43209

> <r_i_glide_gscore>
-10.9359

> <r_i_glide_lipo>
-6.18269

> <r_i_glide_hbond>
-0.32

> <r_i_glide_metal>
-0

> <r_i_glide_rewards>
-1.2632

> <r_i_glide_evdw>
-51.0659

> <r_i_glide_ecoul>
-6.78964

> <r_i_glide_erotb>
0.480194

> <r_i_glide_esite>
-0.0784647

> <r_i_glide_emodel>
-72.3635

> <r_i_glide_energy>
-57.8555

> <r_i_glide_einternal>
2.87902

> <i_i_glide_confnum>
5

> <i_i_glide_posenum>
3

> <r_i_glide_eff_state_penalty>
-0

> <r_i_glide_rmsd>
0.079694

> <s_glide_core_constrain_type>
snapped_core_restrain
$$$$