lig_CHEMBL1082249
                    3D
 Schrodinger Suite 2021-1.
 58 61  0  0  1  0            999 V2000
   34.2544    7.0262   16.1852 H   0  0  0  0  0  0
   33.2691    7.3698   15.9049 C   0  0  0  0  0  0
   33.1118    8.2266   14.8018 C   0  0  0  0  0  0
   33.9729    8.5478   14.2362 H   0  0  0  0  0  0
   31.8287    8.6791   14.4428 C   0  0  0  0  0  0
   31.7155    9.3441   13.5994 H   0  0  0  0  0  0
   30.6949    8.2732   15.1803 C   0  0  0  0  0  0
   29.3172    8.7913   14.8009 C   0  0  2  0  0  0
   28.5984    8.3573   15.4972 H   0  0  0  0  0  0
   28.9448    8.3171   13.4734 N   0  0  0  0  0  0
   29.1117    7.3383   13.2643 H   0  0  0  0  0  0
   27.9306    8.9776   12.7631 C   0  0  0  0  0  0
   27.4864    8.4432   11.5371 C   0  0  0  0  0  0
   27.9675    7.2764   11.1199 F   0  0  0  0  0  0
   26.5255    9.0873   10.7522 C   0  0  0  0  0  0
   26.2019    8.6623    9.8129 H   0  0  0  0  0  0
   25.9947   10.2951   11.2145 C   0  0  0  0  0  0
   24.7672   11.2798   10.1924 Br  0  0  0  0  0  0
   26.3845   10.8312   12.4494 C   0  0  0  0  0  0
   25.9608   11.7682   12.7805 H   0  0  0  0  0  0
   27.3607   10.1847   13.2244 C   0  0  0  0  0  0
   27.8172   10.8220   14.5178 C   0  0  1  0  0  0
   27.8412   11.9016   14.3547 H   0  0  0  0  0  0
   26.8952   10.5352   15.5670 O   0  0  0  0  0  0
   27.1652   11.2460   16.7669 C   0  0  1  0  0  0
   27.2293   12.3067   16.5138 H   0  0  0  0  0  0
   25.9434   11.0791   17.7028 C   0  0  0  0  0  0
   25.6656   12.0371   18.1496 H   0  0  0  0  0  0
   25.0830   10.7893   17.1003 H   0  0  0  0  0  0
   26.0967   10.0522   18.7538 N   0  3  0  0  0  0
   25.1752    9.6791   18.9411 H   0  0  0  0  0  0
   26.6498   10.5011   20.0439 C   0  0  0  0  0  0
   27.6612   10.1004   20.1262 H   0  0  0  0  0  0
   26.7407   11.5892   20.0825 H   0  0  0  0  0  0
   25.7559   10.0093   21.1995 C   0  0  0  0  0  0
   24.7938   10.5214   21.1624 H   0  0  0  0  0  0
   25.5429    8.9428   21.0986 H   0  0  0  0  0  0
   26.3528   10.2523   22.5075 N   0  0  0  0  0  0
   25.9135   10.9341   23.1099 H   0  0  0  0  0  0
   27.3746    9.5324   22.9912 C   0  0  0  0  0  0
   27.9562    8.6874   22.3176 O   0  0  0  0  0  0
   27.8013    9.7875   24.4316 C   0  0  0  0  0  0
   27.2143   10.5798   24.8970 H   0  0  0  0  0  0
   28.8536   10.0694   24.4675 H   0  0  0  0  0  0
   27.6751    8.8772   25.0190 H   0  0  0  0  0  0
   28.5275   10.7733   17.3172 C   0  0  0  0  0  0
   28.7896   11.3354   18.2134 H   0  0  0  0  0  0
   28.4828    9.7206   17.5973 H   0  0  0  0  0  0
   29.6288   10.9488   16.2655 C   0  0  0  0  0  0
   29.8175   12.0149   16.1283 H   0  0  0  0  0  0
   30.5603   10.5238   16.6340 H   0  0  0  0  0  0
   29.2271   10.3398   14.9045 C   0  0  1  0  0  0
   29.9173   10.7453   14.1627 H   0  0  0  0  0  0
   30.8531    7.3884   16.2665 C   0  0  0  0  0  0
   29.9923    7.0476   16.8233 H   0  0  0  0  0  0
   32.1409    6.9535   16.6355 C   0  0  0  0  0  0
   32.2601    6.2822   17.4747 H   0  0  0  0  0  0
   26.6619    9.2951   18.3890 H   0  0  0  0  0  0
  1  2  1  0  0  0
  2 56  1  0  0  0
  2  3  2  0  0  0
  3  4  1  0  0  0
  3  5  1  0  0  0
  5  6  1  0  0  0
  5  7  2  0  0  0
  7  8  1  0  0  0
  7 54  1  0  0  0
  8 52  1  0  0  0
  8  9  1  0  0  0
  8 10  1  0  0  0
 10 11  1  0  0  0
 10 12  1  0  0  0
 12 21  1  0  0  0
 12 13  2  0  0  0
 13 14  1  0  0  0
 13 15  1  0  0  0
 15 16  1  0  0  0
 15 17  2  0  0  0
 17 18  1  0  0  0
 17 19  1  0  0  0
 19 20  1  0  0  0
 19 21  2  0  0  0
 21 22  1  0  0  0
 22 52  1  0  0  0
 22 23  1  0  0  0
 22 24  1  0  0  0
 24 25  1  0  0  0
 25 26  1  0  0  0
 25 27  1  0  0  0
 25 46  1  0  0  0
 27 28  1  0  0  0
 27 29  1  0  0  0
 27 30  1  0  0  0
 30 31  1  0  0  0
 30 32  1  0  0  0
 30 58  1  0  0  0
 32 33  1  0  0  0
 32 34  1  0  0  0
 32 35  1  0  0  0
 35 36  1  0  0  0
 35 37  1  0  0  0
 35 38  1  0  0  0
 38 39  1  0  0  0
 38 40  1  0  0  0
 40 41  2  0  0  0
 40 42  1  0  0  0
 42 43  1  0  0  0
 42 44  1  0  0  0
 42 45  1  0  0  0
 46 47  1  0  0  0
 46 48  1  0  0  0
 46 49  1  0  0  0
 49 50  1  0  0  0
 49 51  1  0  0  0
 49 52  1  0  0  0
 52 53  1  0  0  0
 54 55  1  0  0  0
 54 56  2  0  0  0
 56 57  1  0  0  0
M  CHG  1  30   1
M  END
> <s_m_source_file>
ligprep_eg5.smi

> <i_m_source_file_index>
7

> <i_lp_mmshare_version>
53161

> <i_f3d_flags>
0

> <s_epik_input>
RmMxW2NIXWMoQnIpW2NIXWMoYzEyKVtDQEBIXTNbQ0BIXShbQ0BASF0oW05IXTIpYzRbY0hdW2NIXVtjSF1bY0hdW2NIXTQpW0NIMl1bQ0gyXVtDQEBIXShPMylbQ0gyXVtOSF1bQ0gyXVtDSDJdW05IXUMoPU8pW0NIM10=

> <s_epik_cmdline>
J2VwaWtfcHl0aG9uJywgJy1waHQnLCAnMC4wJywgJy1waCcsICc3LjQnLCAnLXRuJywgJzgnLCAnLW1hJywgJzUwMCcsICctaW1hZScsICc8aW5maWxlLm1hZT4nLCAnLW9tYWUnLCAnPG91dGZpbGUubWFlPic=

> <r_lp_tautomer_probability>
1

> <r_epik_Ionization_Penalty>
0.0077

> <r_epik_Ionization_Penalty_Charging>
0.0077

> <r_epik_Ionization_Penalty_Neutral>
0

> <r_epik_State_Penalty>
-0

> <r_epik_Charging_Adjusted_Penalty>
0.00765215

> <i_epik_Tot_Q>
1

> <i_epik_Tot_abs_Q>
1

> <s_lp_Force_Field>
S-OPLS

> <r_lp_Energy>
33.3357

> <b_lp_Chiralities_Consistent>
1

> <s_lp_Variant>
lig_CHEMBL1082249-1

> <s_i_glide_gridfile>
glide-grid_3L9H-EG5

> <i_i_glide_lignum>
7

> <i_i_glide_rotatable_bonds>
7

> <r_i_docking_score>
-7.63452

> <r_i_glide_ligand_efficiency>
-0.254484

> <r_i_glide_ligand_efficiency_sa>
-0.790741

> <r_i_glide_ligand_efficiency_ln>
-1.73465

> <r_i_glide_gscore>
-7.63452

> <r_i_glide_lipo>
-4.63131

> <r_i_glide_hbond>
-0.253253

> <r_i_glide_metal>
-0

> <r_i_glide_rewards>
-0.434651

> <r_i_glide_evdw>
-43.9832

> <r_i_glide_ecoul>
-4.32967

> <r_i_glide_erotb>
0.533304

> <r_i_glide_esite>
0

> <r_i_glide_emodel>
-66.6781

> <r_i_glide_energy>
-48.3129

> <r_i_glide_einternal>
3.54969

> <i_i_glide_confnum>
48

> <i_i_glide_posenum>
22

> <r_i_glide_eff_state_penalty>
-0

> <r_i_glide_rmsd>
0.0797258

> <s_glide_core_constrain_type>
snapped_core_restrain
$$$$