lig_33
                    3D
 Schrodinger Suite 2021-1.
 38 40  0  0  1  0            999 V2000
   67.8557  -36.3571   28.5423 H   0  0  0  0  0  0
   68.5793  -35.6753   28.1102 C   0  0  0  0  0  0
   69.9035  -35.6696   28.5899 C   0  0  0  0  0  0
   70.8361  -34.7754   28.0249 C   0  0  0  0  0  0
   70.4358  -33.9260   26.9761 C   0  0  0  0  0  0
   69.1127  -33.9269   26.4550 C   0  0  0  0  0  0
   68.1911  -34.8138   27.0609 C   0  0  0  0  0  0
   67.1679  -34.8337   26.7055 H   0  0  0  0  0  0
   69.0475  -32.9595   25.3850 C   0  0  0  0  0  0
   70.2969  -32.3923   25.2854 C   0  0  0  0  0  0
   71.1113  -32.9655   26.2515 N   0  0  0  0  0  0
   72.0669  -32.6666   26.3653 H   0  0  0  0  0  0
   70.9034  -31.3397   24.4284 C   0  0  0  0  0  0
   72.0923  -31.0099   24.6430 O   0  0  0  0  0  0
   70.2348  -30.7847   23.5261 O   0  5  0  0  0  0
   67.8450  -32.6066   24.5638 C   0  0  0  0  0  0
   67.1045  -33.4083   24.5854 H   0  0  0  0  0  0
   68.1356  -32.5107   23.5150 H   0  0  0  0  0  0
   67.2072  -31.2889   25.0237 C   0  0  0  0  0  0
   66.4679  -30.9762   24.2854 H   0  0  0  0  0  0
   67.9749  -30.5166   25.0361 H   0  0  0  0  0  0
   66.5618  -31.3624   26.4116 C   0  0  0  0  0  0
   66.2694  -30.3576   26.7247 H   0  0  0  0  0  0
   67.2533  -31.7718   27.1492 H   0  0  0  0  0  0
   65.4177  -32.1950   26.3220 O   0  0  0  0  0  0
   64.5487  -32.2129   27.3824 C   0  0  0  0  0  0
   64.9008  -31.8041   28.6922 C   0  0  0  0  0  0
   63.9731  -31.9265   29.7447 C   0  0  0  0  0  0
   62.6939  -32.4595   29.4933 C   0  0  0  0  0  0
   62.3235  -32.8388   28.1890 C   0  0  0  0  0  0
   63.2524  -32.7206   27.1409 C   0  0  0  0  0  0
   62.9824  -33.0302   26.1404 H   0  0  0  0  0  0
   61.3373  -33.2411   27.9929 H   0  0  0  0  0  0
   61.5867  -32.6309   30.7896 Cl  0  0  0  0  0  0
   64.2364  -31.6316   30.7524 H   0  0  0  0  0  0
   65.8833  -31.4136   28.9214 H   0  0  0  0  0  0
   71.8548  -34.7434   28.3853 H   0  0  0  0  0  0
   70.2091  -36.3377   29.3794 H   0  0  0  0  0  0
  1  2  1  0  0  0
  2  7  1  0  0  0
  2  3  2  0  0  0
  3  4  1  0  0  0
  3 38  1  0  0  0
  4  5  2  0  0  0
  4 37  1  0  0  0
  5 11  1  0  0  0
  5  6  1  0  0  0
  6  7  2  0  0  0
  6  9  1  0  0  0
  7  8  1  0  0  0
  9 10  2  0  0  0
  9 16  1  0  0  0
 10 11  1  0  0  0
 10 13  1  0  0  0
 11 12  1  0  0  0
 13 14  2  0  0  0
 13 15  1  0  0  0
 16 17  1  0  0  0
 16 18  1  0  0  0
 16 19  1  0  0  0
 19 20  1  0  0  0
 19 21  1  0  0  0
 19 22  1  0  0  0
 22 23  1  0  0  0
 22 24  1  0  0  0
 22 25  1  0  0  0
 25 26  1  0  0  0
 26 31  1  0  0  0
 26 27  2  0  0  0
 27 28  1  0  0  0
 27 36  1  0  0  0
 28 29  2  0  0  0
 28 35  1  0  0  0
 29 30  1  0  0  0
 29 34  1  0  0  0
 30 31  2  0  0  0
 30 33  1  0  0  0
 31 32  1  0  0  0
M  CHG  1  15  -1
M  END
> <s_m_source_file>
ligprep_mcl1.smi

> <i_m_source_file_index>
9

> <i_lp_mmshare_version>
53161

> <i_f3d_flags>
0

> <s_epik_input>
W2NIXTFbY0hdW2NIXVtjSF1jKGMxMiljKGMoW25IXTIpQyg9TylbT0hdKVtDSDJdW0NIMl1bQ0gyXU9jM1tjSF1bY0hdYyhDbClbY0hdW2NIXTM=

> <s_epik_cmdline>
J2VwaWtfcHl0aG9uJywgJy1waHQnLCAnMC4wJywgJy1waCcsICc3LjQnLCAnLXRuJywgJzgnLCAnLW1hJywgJzUwMCcsICctaW1hZScsICc8aW5maWxlLm1hZT4nLCAnLW9tYWUnLCAnPG91dGZpbGUubWFlPic=

> <r_lp_tautomer_probability>
1

> <r_epik_Ionization_Penalty>
0.0005

> <r_epik_Ionization_Penalty_Charging>
0.0005

> <r_epik_Ionization_Penalty_Neutral>
0

> <r_epik_State_Penalty>
-0

> <r_epik_Charging_Adjusted_Penalty>
0.000518745

> <i_epik_Tot_Q>
-1

> <i_epik_Tot_abs_Q>
1

> <s_lp_Force_Field>
S-OPLS

> <r_lp_Energy>
33.2994

> <b_lp_Chiralities_Consistent>
1

> <s_lp_Variant>
lig_33-1

> <s_i_glide_gridfile>
glide-grid_4HW3-MCL1

> <i_i_glide_lignum>
9

> <i_i_glide_rotatable_bonds>
6

> <r_i_docking_score>
-8.35413

> <r_i_glide_ligand_efficiency>
-0.363223

> <r_i_glide_ligand_efficiency_sa>
-1.03296

> <r_i_glide_ligand_efficiency_ln>
-2.0201

> <r_i_glide_gscore>
-8.35413

> <r_i_glide_lipo>
-4.87048

> <r_i_glide_hbond>
-0.270791

> <r_i_glide_metal>
-0

> <r_i_glide_rewards>
-1.81837

> <r_i_glide_evdw>
-39.5307

> <r_i_glide_ecoul>
-2.85206

> <r_i_glide_erotb>
1.0428

> <r_i_glide_esite>
-0.0329463

> <r_i_glide_emodel>
-70.9989

> <r_i_glide_energy>
-42.3827

> <r_i_glide_einternal>
0.182183

> <i_i_glide_confnum>
1

> <i_i_glide_posenum>
17

> <r_i_glide_eff_state_penalty>
-0

> <r_i_glide_rmsd>
0.0877611

> <s_glide_core_constrain_type>
snapped_core_restrain
$$$$