lig_6221
                    3D
 Schrodinger Suite 2021-1.
 47 50  0  0  1  0            999 V2000
  -17.4794   -9.6080   37.4374 H   0  0  0  0  0  0
  -18.0441  -10.0838   38.2297 C   0  0  0  0  0  0
  -17.9126   -9.5477   39.4255 N   0  0  0  0  0  0
  -18.6299  -10.3469   40.2408 N   0  0  0  0  0  0
  -18.6562  -10.0655   41.6539 C   0  0  0  0  0  0
  -19.5375  -10.5420   42.0957 H   0  0  0  0  0  0
  -18.7726   -8.9911   41.8079 H   0  0  0  0  0  0
  -17.3910  -10.5693   42.3790 C   0  0  0  0  0  0
  -17.2750  -11.6443   42.2363 H   0  0  0  0  0  0
  -17.4908  -10.3958   43.4584 H   0  0  0  0  0  0
  -16.2373   -9.8939   41.8927 O   0  0  0  0  0  0
  -15.0518  -10.2568   42.5770 C   0  0  0  0  0  0
  -14.1995   -9.7529   42.1221 H   0  0  0  0  0  0
  -14.8765  -11.3314   42.5204 H   0  0  0  0  0  0
  -15.1033   -9.9706   43.6245 H   0  0  0  0  0  0
  -19.2635  -11.3654   39.5489 C   0  0  0  0  0  0
  -19.8804  -12.0914   40.0558 H   0  0  0  0  0  0
  -18.9143  -11.2233   38.2321 C   0  0  0  0  0  0
  -19.3078  -12.1002   37.1109 C   0  0  0  0  0  0
  -19.8866  -13.3470   37.1392 C   0  0  0  0  0  0
  -20.3194  -14.1875   38.2997 C   0  0  0  0  0  0
  -21.0289  -13.6513   38.9324 H   0  0  0  0  0  0
  -20.8113  -15.1083   37.9675 H   0  0  0  0  0  0
  -19.4493  -14.4591   38.8987 H   0  0  0  0  0  0
  -20.0524  -13.8599   35.8608 N   0  0  0  0  0  0
  -19.5935  -12.9341   35.0251 C   0  0  0  0  0  0
  -19.4892  -12.8804   33.5919 C   0  0  0  0  0  0
  -19.8893  -13.9455   32.7603 N   0  0  0  0  0  0
  -21.1777  -14.6033   32.9642 C   0  0  0  0  0  0
  -21.4691  -14.6611   34.0081 H   0  0  0  0  0  0
  -21.9562  -14.0266   32.4628 H   0  0  0  0  0  0
  -21.1433  -16.0292   32.3697 C   0  0  0  0  0  0
  -22.1162  -16.5132   32.4511 H   0  0  0  0  0  0
  -20.4420  -16.6680   32.9091 H   0  0  0  0  0  0
  -20.7509  -15.9702   31.0060 O   0  0  0  0  0  0
  -19.4389  -15.4300   30.8509 C   0  0  0  0  0  0
  -19.1625  -15.4402   29.7963 H   0  0  0  0  0  0
  -18.7137  -16.0561   31.3803 H   0  0  0  0  0  0
  -19.4150  -13.9886   31.3816 C   0  0  0  0  0  0
  -20.0465  -13.3409   30.7657 H   0  0  0  0  0  0
  -18.3939  -13.6017   31.3232 H   0  0  0  0  0  0
  -18.9922  -11.8279   32.9961 N   0  0  0  0  0  0
  -18.5603  -10.7692   33.7481 C   0  0  0  0  0  0
  -18.1916   -9.9183   33.1778 H   0  0  0  0  0  0
  -18.6323  -10.7106   35.1037 C   0  0  0  0  0  0
  -18.3581   -9.8289   35.6561 H   0  0  0  0  0  0
  -19.1258  -11.8048   35.7565 N   0  0  0  0  0  0
  1  2  1  0  0  0
  2 18  1  0  0  0
  2  3  2  0  0  0
  3  4  1  0  0  0
  4  5  1  0  0  0
  4 16  1  0  0  0
  5  6  1  0  0  0
  5  7  1  0  0  0
  5  8  1  0  0  0
  8  9  1  0  0  0
  8 10  1  0  0  0
  8 11  1  0  0  0
 11 12  1  0  0  0
 12 13  1  0  0  0
 12 14  1  0  0  0
 12 15  1  0  0  0
 16 17  1  0  0  0
 16 18  2  0  0  0
 18 19  1  0  0  0
 19 47  1  0  0  0
 19 20  2  0  0  0
 20 21  1  0  0  0
 20 25  1  0  0  0
 21 22  1  0  0  0
 21 23  1  0  0  0
 21 24  1  0  0  0
 25 26  2  0  0  0
 26 47  1  0  0  0
 26 27  1  0  0  0
 27 28  1  0  0  0
 27 42  2  0  0  0
 28 39  1  0  0  0
 28 29  1  0  0  0
 29 30  1  0  0  0
 29 31  1  0  0  0
 29 32  1  0  0  0
 32 33  1  0  0  0
 32 34  1  0  0  0
 32 35  1  0  0  0
 35 36  1  0  0  0
 36 37  1  0  0  0
 36 38  1  0  0  0
 36 39  1  0  0  0
 39 40  1  0  0  0
 39 41  1  0  0  0
 42 43  1  0  0  0
 43 44  1  0  0  0
 43 45  2  0  0  0
 45 46  1  0  0  0
 45 47  1  0  0  0
M  END
> <s_m_source_file>
ligprep_pde10.smi

> <i_m_source_file_index>
27

> <i_lp_mmshare_version>
53161

> <i_f3d_flags>
0

> <s_epik_input>
W0NIM11PW0NIMl1bQ0gyXW4xbltjSF1jKFtjSF0xKS1jKGMobjIpW0NIM10pbihjMjMpW2NIXVtjSF1uYzNONFtDSDJdW0NIMl1PW0NIMl1bQ0gyXTQ=

> <s_epik_cmdline>
J2VwaWtfcHl0aG9uJywgJy1waHQnLCAnMC4wJywgJy1waCcsICc3LjQnLCAnLXRuJywgJzgnLCAnLW1hJywgJzUwMCcsICctaW1hZScsICc8aW5maWxlLm1hZT4nLCAnLW9tYWUnLCAnPG91dGZpbGUubWFlPic=

> <r_lp_tautomer_probability>
1

> <r_epik_Ionization_Penalty>
0.0004

> <r_epik_Ionization_Penalty_Charging>
0.0003

> <r_epik_Ionization_Penalty_Neutral>
0.0001

> <r_epik_State_Penalty>
-0

> <r_epik_Charging_Adjusted_Penalty>
0.000349532

> <i_epik_Tot_Q>
0

> <i_epik_Tot_abs_Q>
0

> <s_lp_Force_Field>
S-OPLS

> <r_lp_Energy>
27.9918

> <b_lp_Chiralities_Consistent>
1

> <s_lp_Variant>
lig_6221-1

> <s_i_glide_gridfile>
glide-grid_4BBX-PDE10

> <i_i_glide_lignum>
28

> <i_i_glide_rotatable_bonds>
5

> <r_i_docking_score>
-7.39868

> <r_i_glide_ligand_efficiency>
-0.295947

> <r_i_glide_ligand_efficiency_sa>
-0.865354

> <r_i_glide_ligand_efficiency_ln>
-1.75371

> <r_i_glide_gscore>
-7.39868

> <r_i_glide_lipo>
-3.056

> <r_i_glide_hbond>
-0.285694

> <r_i_glide_metal>
-0

> <r_i_glide_rewards>
-2.16321

> <r_i_glide_evdw>
-36.2536

> <r_i_glide_ecoul>
-4.85379

> <r_i_glide_erotb>
0.646974

> <r_i_glide_esite>
0

> <r_i_glide_emodel>
-58.9592

> <r_i_glide_energy>
-41.1074

> <r_i_glide_einternal>
0.607673

> <i_i_glide_confnum>
1

> <i_i_glide_posenum>
25

> <r_i_glide_eff_state_penalty>
-0

> <r_i_glide_rmsd>
0.0862647

> <s_glide_core_constrain_type>
snapped_core_restrain
$$$$