lig_E9
                    3D
 Schrodinger Suite 2021-1.
 43 45  0  0  1  0            999 V2000
   22.0402   42.9027    2.5688 H   0  0  0  0  0  0
   22.1174   42.1286    3.3159 C   0  0  0  0  0  0
   20.9735   41.9092    3.9977 N   0  0  0  0  0  0
   20.9641   40.8827    4.8767 C   0  0  0  0  0  0
   19.6696   40.5976    5.5014 C   0  0  0  0  0  0
   18.6481   40.0439    4.6962 C   0  0  0  0  0  0
   18.8324   39.8418    3.6454 H   0  0  0  0  0  0
   17.3884   39.7298    5.2457 C   0  0  0  0  0  0
   16.6276   39.2907    4.6181 H   0  0  0  0  0  0
   17.1372   39.9608    6.6113 C   0  0  0  0  0  0
   16.1798   39.7043    7.0433 H   0  0  0  0  0  0
   18.1519   40.5045    7.4180 C   0  0  0  0  0  0
   17.8519   40.7607    9.0972 Cl  0  0  0  0  0  0
   19.4102   40.8354    6.8718 C   0  0  0  0  0  0
   20.5981   41.5581    7.8881 Cl  0  0  0  0  0  0
   22.1302   40.1130    5.0988 C   0  0  0  0  0  0
   22.1461   39.0507    5.9964 N   0  0  0  0  0  0
   21.3518   38.8355    6.5808 H   0  0  0  0  0  0
   23.0094   38.5470    6.1927 H   0  0  0  0  0  0
   23.2722   40.3329    4.4124 N   0  0  0  0  0  0
   23.2700   41.3184    3.4837 C   0  0  0  0  0  0
   24.4135   41.4557    2.6727 N   0  0  0  0  0  0
   24.7355   42.7585    2.0911 C   0  0  0  0  0  0
   23.8853   43.4310    1.9902 H   0  0  0  0  0  0
   25.0887   42.5940    1.0714 H   0  0  0  0  0  0
   25.8259   43.4428    2.9229 C   0  0  0  0  0  0
   25.4481   43.6397    3.9280 H   0  0  0  0  0  0
   26.0496   44.4227    2.4936 H   0  0  0  0  0  0
   27.0920   42.5661    3.0036 C   0  0  0  0  0  0
   27.7346   43.0612    3.7302 H   0  0  0  0  0  0
   27.8127   42.4881    1.6427 C   0  0  0  0  0  0
   27.4203   43.2352    0.9487 H   0  0  0  0  0  0
   27.6777   41.5222    1.1578 H   0  0  0  0  0  0
   29.2492   42.7660    1.7834 N   0  3  0  0  0  0
   29.6738   42.8198    0.8642 H   0  0  0  0  0  0
   29.7571   42.0292    2.2993 H   0  0  0  0  0  0
   26.7162   41.1770    3.5706 C   0  0  0  0  0  0
   27.5826   40.5186    3.5585 H   0  0  0  0  0  0
   26.4442   41.2869    4.6212 H   0  0  0  0  0  0
   25.5463   40.5277    2.7968 C   0  0  0  0  0  0
   25.2641   39.5795    3.2556 H   0  0  0  0  0  0
   25.8681   40.2587    1.7870 H   0  0  0  0  0  0
   29.3701   43.6428    2.2674 H   0  0  0  0  0  0
  1  2  1  0  0  0
  2 21  1  0  0  0
  2  3  2  0  0  0
  3  4  1  0  0  0
  4  5  1  0  0  0
  4 16  2  0  0  0
  5 14  1  0  0  0
  5  6  2  0  0  0
  6  7  1  0  0  0
  6  8  1  0  0  0
  8  9  1  0  0  0
  8 10  2  0  0  0
 10 11  1  0  0  0
 10 12  1  0  0  0
 12 13  1  0  0  0
 12 14  2  0  0  0
 14 15  1  0  0  0
 16 17  1  0  0  0
 16 20  1  0  0  0
 17 18  1  0  0  0
 17 19  1  0  0  0
 20 21  2  0  0  0
 21 22  1  0  0  0
 22 40  1  0  0  0
 22 23  1  0  0  0
 23 24  1  0  0  0
 23 25  1  0  0  0
 23 26  1  0  0  0
 26 27  1  0  0  0
 26 28  1  0  0  0
 26 29  1  0  0  0
 29 30  1  0  0  0
 29 31  1  0  0  0
 29 37  1  0  0  0
 31 32  1  0  0  0
 31 33  1  0  0  0
 31 34  1  0  0  0
 34 35  1  0  0  0
 34 36  1  0  0  0
 34 43  1  0  0  0
 37 38  1  0  0  0
 37 39  1  0  0  0
 37 40  1  0  0  0
 40 41  1  0  0  0
 40 42  1  0  0  0
M  CHG  1  34   1
M  END
> <s_m_source_file>
ligprep_shp2.smi

> <i_m_source_file_index>
24

> <i_lp_mmshare_version>
53161

> <i_f3d_flags>
0

> <s_epik_input>
W05IMl1bQ0gyXVtDSF0oW0NIMl1bQ0gyXTEpW0NIMl1bQ0gyXU4xYyhuYzJbTkgyXSlbY0hdbmMyLWMzW2NIXVtjSF1bY0hdYyhDbCljM0Ns

> <s_epik_cmdline>
J2VwaWtfcHl0aG9uJywgJy1waHQnLCAnMC4wJywgJy1waCcsICc3LjQnLCAnLXRuJywgJzgnLCAnLW1hJywgJzUwMCcsICctaW1hZScsICc8aW5maWxlLm1hZT4nLCAnLW9tYWUnLCAnPG91dGZpbGUubWFlPic=

> <r_lp_tautomer_probability>
1

> <r_epik_Ionization_Penalty>
0.0014

> <r_epik_Ionization_Penalty_Charging>
0.001

> <r_epik_Ionization_Penalty_Neutral>
0.0004

> <r_epik_State_Penalty>
-0

> <r_epik_Charging_Adjusted_Penalty>
0.000953617

> <i_epik_Tot_Q>
1

> <i_epik_Tot_abs_Q>
1

> <s_lp_Force_Field>
S-OPLS

> <r_lp_Energy>
46.3802

> <b_lp_Chiralities_Consistent>
1

> <s_lp_Variant>
lig_E9-1

> <s_i_glide_gridfile>
glide-grid_5EHR-SHP2

> <i_i_glide_lignum>
24

> <i_i_glide_rotatable_bonds>
3

> <r_i_docking_score>
-9.31379

> <r_i_glide_ligand_efficiency>
-0.404947

> <r_i_glide_ligand_efficiency_sa>
-1.15162

> <r_i_glide_ligand_efficiency_ln>
-2.25216

> <r_i_glide_gscore>
-9.31379

> <r_i_glide_lipo>
-3.32224

> <r_i_glide_hbond>
-0.642272

> <r_i_glide_metal>
-0

> <r_i_glide_rewards>
-1.28219

> <r_i_glide_evdw>
-50.0171

> <r_i_glide_ecoul>
-12.8368

> <r_i_glide_erotb>
0.459014

> <r_i_glide_esite>
-0.0997199

> <r_i_glide_emodel>
-106.623

> <r_i_glide_energy>
-62.8539

> <r_i_glide_einternal>
2.49644

> <i_i_glide_confnum>
6

> <i_i_glide_posenum>
3

> <r_i_glide_eff_state_penalty>
-0

> <r_i_glide_rmsd>
0.102799

> <s_glide_core_constrain_type>
snapped_core_restrain
$$$$