lig_56
                    3D
 Schrodinger Suite 2021-1.
 47 49  0  0  1  0            999 V2000
   67.7364  -36.3866   28.4382 H   0  0  0  0  0  0
   68.4815  -35.7140   28.0361 C   0  0  0  0  0  0
   69.7828  -35.7043   28.5693 C   0  0  0  0  0  0
   70.7451  -34.8153   28.0499 C   0  0  0  0  0  0
   70.4053  -33.9475   26.9865 C   0  0  0  0  0  0
   69.1003  -33.9548   26.4238 C   0  0  0  0  0  0
   68.1486  -34.8474   26.9763 C   0  0  0  0  0  0
   67.1438  -34.8578   26.5800 H   0  0  0  0  0  0
   69.0614  -32.9800   25.3759 C   0  0  0  0  0  0
   70.3083  -32.3946   25.3057 C   0  0  0  0  0  0
   71.1303  -32.9815   26.2902 N   0  0  0  0  0  0
   72.5293  -32.6664   26.5604 C   0  0  0  0  0  0
   72.9731  -33.3829   27.2481 H   0  0  0  0  0  0
   73.1092  -32.6965   25.6387 H   0  0  0  0  0  0
   72.6023  -31.6719   26.9983 H   0  0  0  0  0  0
   70.7974  -31.2883   24.4105 C   0  0  0  0  0  0
   71.7976  -30.6076   24.7243 O   0  0  0  0  0  0
   70.1780  -31.0099   23.3565 O   0  5  0  0  0  0
   67.8522  -32.6255   24.5578 C   0  0  0  0  0  0
   67.1081  -33.4167   24.6161 H   0  0  0  0  0  0
   68.1175  -32.5670   23.5033 H   0  0  0  0  0  0
   67.2168  -31.2997   25.0039 C   0  0  0  0  0  0
   66.4521  -31.0077   24.2875 H   0  0  0  0  0  0
   67.9716  -30.5185   24.9827 H   0  0  0  0  0  0
   66.5804  -31.3522   26.3994 C   0  0  0  0  0  0
   66.2988  -30.3447   26.7134 H   0  0  0  0  0  0
   67.2778  -31.7540   27.1345 H   0  0  0  0  0  0
   65.4295  -32.1734   26.3201 O   0  0  0  0  0  0
   64.5653  -32.2078   27.3826 C   0  0  0  0  0  0
   63.3032  -32.7822   27.1425 C   0  0  0  0  0  0
   62.3757  -32.9400   28.1912 C   0  0  0  0  0  0
   62.7060  -32.4750   29.4871 C   0  0  0  0  0  0
   63.9551  -31.8562   29.7262 C   0  0  0  0  0  0
   64.8853  -31.7373   28.6756 C   0  0  0  0  0  0
   65.8433  -31.2843   28.8791 H   0  0  0  0  0  0
   64.3158  -31.3335   31.1068 C   0  0  0  0  0  0
   65.2987  -30.8601   31.1169 H   0  0  0  0  0  0
   64.3327  -32.1497   31.8325 H   0  0  0  0  0  0
   63.5853  -30.5884   31.4274 H   0  0  0  0  0  0
   61.5916  -32.6756   30.7880 Cl  0  0  0  0  0  0
   61.0501  -33.6316   27.9165 C   0  0  0  0  0  0
   60.9595  -33.9195   26.8672 H   0  0  0  0  0  0
   60.9606  -34.5372   28.5186 H   0  0  0  0  0  0
   60.2153  -32.9722   28.1564 H   0  0  0  0  0  0
   63.0693  -33.1426   26.1520 H   0  0  0  0  0  0
   71.7366  -34.7998   28.4790 H   0  0  0  0  0  0
   70.0365  -36.3707   29.3834 H   0  0  0  0  0  0
  1  2  1  0  0  0
  2  7  1  0  0  0
  2  3  2  0  0  0
  3  4  1  0  0  0
  3 47  1  0  0  0
  4  5  2  0  0  0
  4 46  1  0  0  0
  5 11  1  0  0  0
  5  6  1  0  0  0
  6  7  2  0  0  0
  6  9  1  0  0  0
  7  8  1  0  0  0
  9 10  2  0  0  0
  9 19  1  0  0  0
 10 11  1  0  0  0
 10 16  1  0  0  0
 11 12  1  0  0  0
 12 13  1  0  0  0
 12 14  1  0  0  0
 12 15  1  0  0  0
 16 17  2  0  0  0
 16 18  1  0  0  0
 19 20  1  0  0  0
 19 21  1  0  0  0
 19 22  1  0  0  0
 22 23  1  0  0  0
 22 24  1  0  0  0
 22 25  1  0  0  0
 25 26  1  0  0  0
 25 27  1  0  0  0
 25 28  1  0  0  0
 28 29  1  0  0  0
 29 34  1  0  0  0
 29 30  2  0  0  0
 30 31  1  0  0  0
 30 45  1  0  0  0
 31 32  2  0  0  0
 31 41  1  0  0  0
 32 33  1  0  0  0
 32 40  1  0  0  0
 33 34  2  0  0  0
 33 36  1  0  0  0
 34 35  1  0  0  0
 36 37  1  0  0  0
 36 38  1  0  0  0
 36 39  1  0  0  0
 41 42  1  0  0  0
 41 43  1  0  0  0
 41 44  1  0  0  0
M  CHG  1  18  -1
M  END
> <s_m_source_file>
ligprep_mcl1.smi

> <i_m_source_file_index>
31

> <i_lp_mmshare_version>
53161

> <i_f3d_flags>
0

> <s_epik_input>
W2NIXTFbY0hdW2NIXVtjSF1jKGMxMiljKGMobjJbQ0gzXSlDKD1PKVtPSF0pW0NIMl1bQ0gyXVtDSDJdT2MzW2NIXWMoW0NIM10pYyhDbCljKFtjSF0zKVtDSDNd

> <s_epik_cmdline>
J2VwaWtfcHl0aG9uJywgJy1waHQnLCAnMC4wJywgJy1waCcsICc3LjQnLCAnLXRuJywgJzgnLCAnLW1hJywgJzUwMCcsICctaW1hZScsICc8aW5maWxlLm1hZT4nLCAnLW9tYWUnLCAnPG91dGZpbGUubWFlPic=

> <r_lp_tautomer_probability>
1

> <r_epik_Ionization_Penalty>
0.0099

> <r_epik_Ionization_Penalty_Charging>
0.0099

> <r_epik_Ionization_Penalty_Neutral>
0

> <r_epik_State_Penalty>
-0

> <r_epik_Charging_Adjusted_Penalty>
0.00989628

> <i_epik_Tot_Q>
-1

> <i_epik_Tot_abs_Q>
1

> <s_lp_Force_Field>
S-OPLS

> <r_lp_Energy>
44.3564

> <b_lp_Chiralities_Consistent>
1

> <s_lp_Variant>
lig_56-1

> <s_i_glide_gridfile>
glide-grid_4HW3-MCL1

> <i_i_glide_lignum>
31

> <i_i_glide_rotatable_bonds>
6

> <r_i_docking_score>
-9.67946

> <r_i_glide_ligand_efficiency>
-0.372287

> <r_i_glide_ligand_efficiency_sa>
-1.1029

> <r_i_glide_ligand_efficiency_ln>
-2.27319

> <r_i_glide_gscore>
-9.67946

> <r_i_glide_lipo>
-5.54639

> <r_i_glide_hbond>
-0.37244

> <r_i_glide_metal>
-0

> <r_i_glide_rewards>
-1.82851

> <r_i_glide_evdw>
-45.2372

> <r_i_glide_ecoul>
-3.20187

> <r_i_glide_erotb>
0.841857

> <r_i_glide_esite>
-0.031844

> <r_i_glide_emodel>
-85.1312

> <r_i_glide_energy>
-48.439

> <r_i_glide_einternal>
4.70161

> <i_i_glide_confnum>
12

> <i_i_glide_posenum>
18

> <r_i_glide_eff_state_penalty>
-0

> <r_i_glide_rmsd>
0.0713484

> <s_glide_core_constrain_type>
snapped_core_restrain
$$$$