lig_22
                    3D
 Schrodinger Suite 2021-1.
 49 52  0  0  1  0            999 V2000
   11.3088   46.8516   52.2074 H   0  0  0  0  0  0
   10.4956   46.3003   51.7647 C   0  0  0  0  0  0
    9.2329   46.4952   52.1193 N   0  0  0  0  0  0
    8.5709   45.6291   51.2608 C   0  0  0  0  0  0
    7.2102   45.3193   51.0668 C   0  0  0  0  0  0
    6.2163   45.8687   51.8452 O   0  0  0  0  0  0
    4.8773   45.5671   51.4781 C   0  0  0  0  0  0
    4.7338   44.5252   51.1875 H   0  0  0  0  0  0
    4.6262   46.1718   50.6034 H   0  0  0  0  0  0
    3.8818   45.8499   52.6139 C   0  0  0  0  0  0
    4.1091   46.8297   53.0374 H   0  0  0  0  0  0
    2.4576   45.8868   52.0375 C   0  0  0  0  0  0
    2.2472   44.9608   51.5014 H   0  0  0  0  0  0
    2.3655   46.6892   51.3068 H   0  0  0  0  0  0
    1.3966   46.0791   53.1327 C   0  0  0  0  0  0
    0.3968   46.0679   52.6933 H   0  0  0  0  0  0
    1.5207   47.0621   53.5876 H   0  0  0  0  0  0
    1.5072   44.9998   54.2186 C   0  0  0  0  0  0
    1.2726   44.0237   53.7895 H   0  0  0  0  0  0
    0.7726   45.1810   54.9992 H   0  0  0  0  0  0
    2.9223   44.9728   54.8209 C   0  0  0  0  0  0
    2.9942   44.1712   55.5546 H   0  0  0  0  0  0
    3.1085   45.9008   55.3639 H   0  0  0  0  0  0
    3.9888   44.7829   53.7281 C   0  0  0  0  0  0
    4.9831   44.8086   54.1807 H   0  0  0  0  0  0
    3.8797   43.7856   53.2995 H   0  0  0  0  0  0
    6.8991   44.4188   50.1095 N   0  0  0  0  0  0
    7.8563   43.8172   49.4073 C   0  0  0  0  0  0
    7.4357   42.8129   48.5814 N   0  0  0  0  0  0
    8.1368   42.4936   47.9188 H   0  0  0  0  0  0
    6.2839   42.0132   48.5964 C   0  0  0  0  0  0
    5.6740   41.6558   49.8208 C   0  0  0  0  0  0
    6.1149   41.9583   50.7609 H   0  0  0  0  0  0
    4.4712   40.9281   49.8351 C   0  0  0  0  0  0
    4.0060   40.6730   50.7773 H   0  0  0  0  0  0
    3.8817   40.5266   48.6260 C   0  0  0  0  0  0
    2.9664   39.9627   48.6424 H   0  0  0  0  0  0
    4.5027   40.8376   47.3995 C   0  0  0  0  0  0
    3.7150   40.3246   45.9038 S   0  0  0  0  0  0
    4.3237   41.3807   44.5603 C   0  0  0  0  0  0
    3.8366   41.0988   43.6229 H   0  0  0  0  0  0
    4.0903   42.4296   44.7610 H   0  0  0  0  0  0
    5.3973   41.2731   44.4288 H   0  0  0  0  0  0
    5.7081   41.5785   47.3845 C   0  0  0  0  0  0
    6.1888   41.8289   46.4537 H   0  0  0  0  0  0
    9.1713   44.0127   49.4534 N   0  0  0  0  0  0
    9.4767   44.9286   50.4157 C   0  0  0  0  0  0
   10.7082   45.3996   50.7983 N   0  0  0  0  0  0
   11.6291   45.1744   50.4050 H   0  0  0  0  0  0
  1  2  1  0  0  0
  2 48  1  0  0  0
  2  3  2  0  0  0
  3  4  1  0  0  0
  4 47  1  0  0  0
  4  5  2  0  0  0
  5  6  1  0  0  0
  5 27  1  0  0  0
  6  7  1  0  0  0
  7  8  1  0  0  0
  7  9  1  0  0  0
  7 10  1  0  0  0
 10 24  1  0  0  0
 10 11  1  0  0  0
 10 12  1  0  0  0
 12 13  1  0  0  0
 12 14  1  0  0  0
 12 15  1  0  0  0
 15 16  1  0  0  0
 15 17  1  0  0  0
 15 18  1  0  0  0
 18 19  1  0  0  0
 18 20  1  0  0  0
 18 21  1  0  0  0
 21 22  1  0  0  0
 21 23  1  0  0  0
 21 24  1  0  0  0
 24 25  1  0  0  0
 24 26  1  0  0  0
 27 28  2  0  0  0
 28 29  1  0  0  0
 28 46  1  0  0  0
 29 30  1  0  0  0
 29 31  1  0  0  0
 31 44  1  0  0  0
 31 32  2  0  0  0
 32 33  1  0  0  0
 32 34  1  0  0  0
 34 35  1  0  0  0
 34 36  2  0  0  0
 36 37  1  0  0  0
 36 38  1  0  0  0
 38 39  1  0  0  0
 38 44  2  0  0  0
 39 40  1  0  0  0
 40 41  1  0  0  0
 40 42  1  0  0  0
 40 43  1  0  0  0
 44 45  1  0  0  0
 46 47  2  0  0  0
 47 48  1  0  0  0
 48 49  1  0  0  0
M  END
> <s_m_source_file>
ligprep_cdk2.smi

> <i_m_source_file_index>
10

> <i_lp_mmshare_version>
53161

> <i_f3d_flags>
0

> <s_epik_input>
W0NIM11TYyhbY0hdMSlbY0hdW2NIXVtjSF1jMVtOSF1jKG5jKGMyMylbbkhdW2NIXW4yKW5jM09bQ0gyXVtDSF00W0NIMl1bQ0gyXVtDSDJdW0NIMl1bQ0gyXTQ=

> <s_epik_cmdline>
J2VwaWtfcHl0aG9uJywgJy1waHQnLCAnMC4wJywgJy1waCcsICc3LjQnLCAnLXRuJywgJzgnLCAnLW1hJywgJzUwMCcsICctaW1hZScsICc8aW5maWxlLm1hZT4nLCAnLW9tYWUnLCAnPG91dGZpbGUubWFlPic=

> <r_lp_tautomer_probability>
1

> <r_epik_Ionization_Penalty>
0.0272

> <r_epik_Ionization_Penalty_Charging>
0

> <r_epik_Ionization_Penalty_Neutral>
0.0272

> <r_epik_State_Penalty>
-0

> <r_epik_Charging_Adjusted_Penalty>
0

> <i_epik_Tot_Q>
0

> <i_epik_Tot_abs_Q>
0

> <s_lp_Force_Field>
S-OPLS

> <r_lp_Energy>
27.3097

> <b_lp_Chiralities_Consistent>
1

> <s_lp_Variant>
lig_22-1

> <s_i_glide_gridfile>
glide-grid_1H1Q-CDK2

> <i_i_glide_lignum>
10

> <i_i_glide_rotatable_bonds>
6

> <r_i_docking_score>
-10.3132

> <r_i_glide_ligand_efficiency>
-0.396663

> <r_i_glide_ligand_efficiency_sa>
-1.17511

> <r_i_glide_ligand_efficiency_ln>
-2.42203

> <r_i_glide_gscore>
-10.3132

> <r_i_glide_lipo>
-2.38314

> <r_i_glide_hbond>
-1.15764

> <r_i_glide_metal>
-0

> <r_i_glide_rewards>
-3.15123

> <r_i_glide_evdw>
-41.4685

> <r_i_glide_ecoul>
-14.2733

> <r_i_glide_erotb>
0.593195

> <r_i_glide_esite>
0

> <r_i_glide_emodel>
-84.9711

> <r_i_glide_energy>
-55.7418

> <r_i_glide_einternal>
0.359893

> <i_i_glide_confnum>
3

> <i_i_glide_posenum>
2

> <r_i_glide_eff_state_penalty>
-0

> <r_i_glide_rmsd>
0.0998618

> <s_glide_core_constrain_type>
snapped_core_restrain
$$$$