lig_5a
                    3D
 Schrodinger Suite 2021-1.
 37 39  0  0  1  0            999 V2000
  -39.0265  -11.3412    4.7118 H   0  0  0  0  0  0
  -38.9747  -11.6662    5.5977 O   0  0  0  0  0  0
  -38.6915  -10.5927    6.4586 C   0  0  0  0  0  0
  -38.6808  -10.9547    7.9232 C   0  0  0  0  0  0
  -38.1802  -10.0395    8.8706 C   0  0  0  0  0  0
  -37.7744   -9.0854    8.5635 H   0  0  0  0  0  0
  -38.2418  -10.3343   10.2384 C   0  0  0  0  0  0
  -37.8572   -9.6023   10.9341 H   0  0  0  0  0  0
  -38.8152  -11.5505   10.6736 C   0  0  0  0  0  0
  -38.8900  -11.8569   12.1251 C   0  0  0  0  0  0
  -39.6070  -12.8558   12.5561 N   0  0  0  0  0  0
  -39.6412  -13.1571   13.9256 C   0  0  0  0  0  0
  -40.4390  -14.2251   14.3810 C   0  0  0  0  0  0
  -41.0064  -14.8144   13.6768 H   0  0  0  0  0  0
  -40.5167  -14.5138   15.7571 C   0  0  0  0  0  0
  -41.1441  -15.3234   16.1064 H   0  0  0  0  0  0
  -39.7868  -13.7417   16.6814 C   0  0  0  0  0  0
  -39.8586  -13.9734   17.7330 H   0  0  0  0  0  0
  -38.9713  -12.6840   16.2368 C   0  0  0  0  0  0
  -38.4106  -12.0942   16.9490 H   0  0  0  0  0  0
  -38.9035  -12.3899   14.8599 C   0  0  0  0  0  0
  -38.0622  -11.2674   14.3334 C   0  0  0  0  0  0
  -37.3263  -10.5839   15.0452 O   0  0  0  0  0  0
  -38.1460  -11.0704   13.0129 N   0  0  0  0  0  0
  -37.5505  -10.3497   12.6236 H   0  0  0  0  0  0
  -39.3144  -12.4651    9.7219 C   0  0  0  0  0  0
  -39.7585  -13.4071   10.0250 H   0  0  0  0  0  0
  -39.2502  -12.1696    8.3567 C   0  0  0  0  0  0
  -39.6663  -12.8724    7.6475 H   0  0  0  0  0  0
  -37.3490  -10.0673    5.9706 C   0  0  0  0  0  0
  -37.0850   -9.1164    6.4319 H   0  0  0  0  0  0
  -37.3330   -9.9123    4.8917 H   0  0  0  0  0  0
  -36.5611  -10.7858    6.1983 H   0  0  0  0  0  0
  -39.8036   -9.6016    6.2518 C   0  0  0  0  0  0
  -39.6563   -8.6689    6.7985 H   0  0  0  0  0  0
  -39.8017   -9.3752    5.1967 H   0  0  0  0  0  0
  -40.7815  -10.0140    6.5047 H   0  0  0  0  0  0
  1  2  1  0  0  0
  2  3  1  0  0  0
  3  4  1  0  0  0
  3 30  1  0  0  0
  3 34  1  0  0  0
  4 28  1  0  0  0
  4  5  2  0  0  0
  5  6  1  0  0  0
  5  7  1  0  0  0
  7  8  1  0  0  0
  7  9  2  0  0  0
  9 10  1  0  0  0
  9 26  1  0  0  0
 10 24  1  0  0  0
 10 11  2  0  0  0
 11 12  1  0  0  0
 12 21  2  0  0  0
 12 13  1  0  0  0
 13 14  1  0  0  0
 13 15  2  0  0  0
 15 16  1  0  0  0
 15 17  1  0  0  0
 17 18  1  0  0  0
 17 19  2  0  0  0
 19 20  1  0  0  0
 19 21  1  0  0  0
 21 22  1  0  0  0
 22 23  2  0  0  0
 22 24  1  0  0  0
 24 25  1  0  0  0
 26 27  1  0  0  0
 26 28  2  0  0  0
 28 29  1  0  0  0
 30 31  1  0  0  0
 30 32  1  0  0  0
 30 33  1  0  0  0
 34 35  1  0  0  0
 34 36  1  0  0  0
 34 37  1  0  0  0
M  END
> <s_m_source_file>
ligprep_tnks2.smi

> <i_m_source_file_index>
5

> <i_lp_mmshare_version>
53161

> <i_f3d_flags>
0

> <s_epik_input>
W09IXUMoW0NIM10pKFtDSDNdKWMxW2NIXVtjSF1jKFtjSF1bY0hdMSktYyhuMilbbkhdYyg9TyljKGMyMylbY0hdW2NIXVtjSF1bY0hdMw==

> <s_epik_cmdline>
J2VwaWtfcHl0aG9uJywgJy1waHQnLCAnMC4wJywgJy1waCcsICc3LjQnLCAnLXRuJywgJzgnLCAnLW1hJywgJzUwMCcsICctaW1hZScsICc8aW5maWxlLm1hZT4nLCAnLW9tYWUnLCAnPG91dGZpbGUubWFlPic=

> <r_lp_tautomer_probability>
1

> <r_epik_Ionization_Penalty>
0.0064

> <r_epik_Ionization_Penalty_Charging>
0.0064

> <r_epik_Ionization_Penalty_Neutral>
0

> <r_epik_State_Penalty>
-0

> <r_epik_Charging_Adjusted_Penalty>
0.00640926

> <i_epik_Tot_Q>
0

> <i_epik_Tot_abs_Q>
0

> <s_lp_Force_Field>
S-OPLS

> <r_lp_Energy>
19.218

> <b_lp_Chiralities_Consistent>
1

> <s_lp_Variant>
lig_5a-1

> <s_i_glide_gridfile>
glide-grid_4UI5-TNKS2

> <i_i_glide_lignum>
5

> <i_i_glide_rotatable_bonds>
3

> <r_i_docking_score>
-11.7761

> <r_i_glide_ligand_efficiency>
-0.560767

> <r_i_glide_ligand_efficiency_sa>
-1.54711

> <r_i_glide_ligand_efficiency_ln>
-2.91162

> <r_i_glide_gscore>
-11.7761

> <r_i_glide_lipo>
-4.41166

> <r_i_glide_hbond>
-0.834309

> <r_i_glide_metal>
-0

> <r_i_glide_rewards>
-3.33641

> <r_i_glide_evdw>
-43.1904

> <r_i_glide_ecoul>
-10.112

> <r_i_glide_erotb>
0.482591

> <r_i_glide_esite>
0

> <r_i_glide_emodel>
-82.3701

> <r_i_glide_energy>
-53.3023

> <r_i_glide_einternal>
0.325925

> <i_i_glide_confnum>
4

> <i_i_glide_posenum>
9

> <r_i_glide_eff_state_penalty>
-0

> <r_i_glide_rmsd>
0.0998264

> <s_glide_core_constrain_type>
snapped_core_restrain
$$$$