lig_48022468
                    3D
 Schrodinger Suite 2021-1.
 48 52  0  0  1  0            999 V2000
   11.9652    1.2459  -46.8833 C   0  0  0  0  0  0
   11.5175    1.8826  -45.5797 C   0  0  0  0  0  0
   12.1996    1.6443  -44.3648 C   0  0  0  0  0  0
   13.2653    0.9046  -44.0727 N   0  0  0  0  0  0
   13.4481    1.0334  -42.6881 N   0  0  0  0  0  0
   12.4765    1.8039  -42.1804 C   0  0  0  0  0  0
   11.7588    2.2111  -43.2437 N   0  0  0  0  0  0
   10.6991    3.1267  -43.2601 C   0  0  0  0  0  0
   10.2485    3.9236  -42.1763 C   0  0  0  0  0  0
    9.2153    4.8703  -42.2971 C   0  0  0  0  0  0
    8.5539    5.0255  -43.5263 C   0  0  0  0  0  0
    8.9619    4.2582  -44.6232 C   0  0  0  0  0  0
   10.0236    3.3402  -44.5097 C   0  0  0  0  0  0
   10.4312    2.6826  -45.6284 N   0  0  0  0  0  0
    8.8161    5.6843  -41.0768 C   0  0  0  0  0  0
    8.3177    7.0259  -41.3735 N   0  0  0  0  0  0
    9.3572    7.9172  -41.8903 C   0  0  0  0  0  0
    8.8257    9.3391  -42.1631 C   0  0  0  0  0  0
    8.1952    9.8617  -40.9977 O   0  0  0  0  0  0
    7.1435    9.0321  -40.5186 C   0  0  0  0  0  0
    7.7026    7.6353  -40.2015 C   0  0  0  0  0  0
   12.3209    1.9956  -40.7278 C   0  0  0  0  0  0
   13.3537    2.5963  -39.9687 C   0  0  0  0  0  0
   13.2632    2.7657  -38.5823 C   0  0  0  0  0  0
   12.1021    2.3580  -37.9197 C   0  0  0  0  0  0
   11.0677    1.7325  -38.6411 C   0  0  0  0  0  0
   11.1815    1.5217  -40.0327 C   0  0  0  0  0  0
    9.9205    0.6809  -40.8586 Cl  0  0  0  0  0  0
   14.4568    3.0618  -40.5516 F   0  0  0  0  0  0
   12.9685    1.5831  -47.1443 H   0  0  0  0  0  0
   11.9870    0.1600  -46.7916 H   0  0  0  0  0  0
   11.3000    1.4983  -47.7098 H   0  0  0  0  0  0
   10.7265    3.8550  -41.2161 H   0  0  0  0  0  0
    7.7481    5.7362  -43.6361 H   0  0  0  0  0  0
    8.4760    4.3986  -45.5789 H   0  0  0  0  0  0
    9.6660    5.7473  -40.3949 H   0  0  0  0  0  0
    8.0488    5.1083  -40.5580 H   0  0  0  0  0  0
    9.7745    7.5128  -42.8126 H   0  0  0  0  0  0
   10.1796    7.9773  -41.1763 H   0  0  0  0  0  0
    9.6441   10.0011  -42.4434 H   0  0  0  0  0  0
    8.1230    9.3438  -42.9957 H   0  0  0  0  0  0
    6.7247    9.4827  -39.6194 H   0  0  0  0  0  0
    6.3452    8.9754  -41.2618 H   0  0  0  0  0  0
    8.4349    7.7173  -39.3963 H   0  0  0  0  0  0
    6.8987    6.9981  -39.8293 H   0  0  0  0  0  0
   14.0711    3.2357  -38.0375 H   0  0  0  0  0  0
   12.0080    2.5201  -36.8587 H   0  0  0  0  0  0
   10.1829    1.4026  -38.1158 H   0  0  0  0  0  0
  1  2  1  0  0  0
  1 30  1  0  0  0
  1 31  1  0  0  0
  1 32  1  0  0  0
  2 14  2  0  0  0
  2  3  1  0  0  0
  3  7  1  0  0  0
  3  4  2  0  0  0
  4  5  1  0  0  0
  5  6  2  0  0  0
  6  7  1  0  0  0
  6 22  1  0  0  0
  7  8  1  0  0  0
  8 13  1  0  0  0
  8  9  2  0  0  0
  9 10  1  0  0  0
  9 33  1  0  0  0
 10 11  2  0  0  0
 10 15  1  0  0  0
 11 12  1  0  0  0
 11 34  1  0  0  0
 12 13  2  0  0  0
 12 35  1  0  0  0
 13 14  1  0  0  0
 15 16  1  0  0  0
 15 36  1  0  0  0
 15 37  1  0  0  0
 16 21  1  0  0  0
 16 17  1  0  0  0
 17 18  1  0  0  0
 17 38  1  0  0  0
 17 39  1  0  0  0
 18 19  1  0  0  0
 18 40  1  0  0  0
 18 41  1  0  0  0
 19 20  1  0  0  0
 20 21  1  0  0  0
 20 42  1  0  0  0
 20 43  1  0  0  0
 21 44  1  0  0  0
 21 45  1  0  0  0
 22 27  1  0  0  0
 22 23  2  0  0  0
 23 24  1  0  0  0
 23 29  1  0  0  0
 24 25  2  0  0  0
 24 46  1  0  0  0
 25 26  1  0  0  0
 25 47  1  0  0  0
 26 27  2  0  0  0
 26 48  1  0  0  0
 27 28  1  0  0  0
M  END
> <s_m_source_file>
ligprep_pde2.smi

> <i_m_source_file_index>
3

> <i_lp_mmshare_version>
53161

> <i_f3d_flags>
0

> <s_epik_input>
Q2xjMVtjSF1bY0hdW2NIXWMoRiljMS1jKG5uMiluKGMyMyljNGMobmMzW0NIM10pW2NIXVtjSF1jKFtjSF00KVtDSDJdTjVbQ0gyXVtDSDJdT1tDSDJdW0NIMl01

> <s_epik_cmdline>
J2VwaWtfcHl0aG9uJywgJy1waHQnLCAnMC4wJywgJy1waCcsICc3LjQnLCAnLXRuJywgJzgnLCAnLW1hJywgJzUwMCcsICctaW1hZScsICc8aW5maWxlLm1hZT4nLCAnLW9tYWUnLCAnPG91dGZpbGUubWFlPic=

> <r_epik_Ionization_Penalty>
0.1301

> <r_epik_Ionization_Penalty_Charging>
0

> <r_epik_Ionization_Penalty_Neutral>
0.1301

> <r_epik_State_Penalty>
0.1195

> <r_epik_Charging_Adjusted_Penalty>
0.119465

> <i_epik_Tot_Q>
0

> <i_epik_Tot_abs_Q>
0

> <s_lp_Force_Field>
S-OPLS

> <r_lp_Energy>
47.293

> <b_lp_Chiralities_Consistent>
1

> <s_lp_Variant>
lig_48022468-1

> <s_i_glide_gridfile>
glide-grid_6C7E-PDE2

> <i_i_glide_lignum>
3

> <i_i_glide_rotatable_bonds>
3

> <r_i_docking_score>
-7.1818

> <r_i_glide_ligand_efficiency>
-0.247648

> <r_i_glide_ligand_efficiency_sa>
-0.760854

> <r_i_glide_ligand_efficiency_ln>
-1.64445

> <r_i_glide_gscore>
-7.3013

> <r_i_glide_lipo>
-3.5756

> <r_i_glide_hbond>
-0.32

> <r_i_glide_metal>
-0

> <r_i_glide_rewards>
-1.25025

> <r_i_glide_evdw>
-34.3127

> <r_i_glide_ecoul>
-4.87371

> <r_i_glide_erotb>
0.348648

> <r_i_glide_esite>
-0.0574075

> <r_i_glide_emodel>
-48.8229

> <r_i_glide_energy>
-39.1864

> <r_i_glide_einternal>
0.138798

> <i_i_glide_confnum>
4

> <i_i_glide_posenum>
2

> <r_i_glide_eff_state_penalty>
0.1195

> <r_i_glide_rmsd>
0.0951012

> <s_glide_core_constrain_type>
snapped_core_restrain
$$$$