lig_23476
                    3D
 Schrodinger Suite 2021-1.
 48 50  0  0  1  0            999 V2000
   44.4906    8.8884   -0.1781 H   0  0  0  0  0  0
   45.2462    9.5070    0.2833 C   0  0  0  0  0  0
   44.9720   10.8624    0.5666 C   0  0  0  0  0  0
   45.9544   11.6891    1.1590 C   0  0  0  0  0  0
   47.2114   11.1149    1.4571 C   0  0  0  0  0  0
   47.4807    9.7528    1.2317 C   0  0  0  0  0  0
   46.4998    8.9569    0.6028 C   0  0  0  0  0  0
   46.6821    7.9152    0.3879 H   0  0  0  0  0  0
   48.7151    9.2559    1.6780 N   0  0  0  0  0  0
   49.2829    9.8879    2.2267 H   0  0  0  0  0  0
   48.9762    7.8295    1.8623 C   0  0  0  0  0  0
   50.4798    7.6376    2.1620 C   0  0  0  0  0  0
   50.8846    6.2668    2.7329 C   0  0  0  0  0  0
   50.7759    6.2013    4.2685 C   0  0  0  0  0  0
   49.3402    6.1150    4.8088 C   0  0  0  0  0  0
   48.4266    7.2714    4.3672 C   0  0  0  0  0  0
   48.0191    7.1656    2.8887 C   0  0  0  0  0  0
   47.0116    7.5609    2.7801 H   0  0  0  0  0  0
   47.9083    6.1111    2.6323 H   0  0  0  0  0  0
   47.5194    7.2249    4.9723 H   0  0  0  0  0  0
   48.8751    8.2413    4.5805 H   0  0  0  0  0  0
   48.8953    5.1613    4.5198 H   0  0  0  0  0  0
   49.3805    6.0935    5.8984 H   0  0  0  0  0  0
   51.3238    5.3248    4.6169 H   0  0  0  0  0  0
   51.2810    7.0614    4.7119 H   0  0  0  0  0  0
   50.3202    5.4610    2.2604 H   0  0  0  0  0  0
   51.9292    6.0894    2.4734 H   0  0  0  0  0  0
   51.0252    7.8027    1.2325 H   0  0  0  0  0  0
   50.8329    8.4174    2.8391 H   0  0  0  0  0  0
   48.7867    7.3503    0.9015 H   0  0  0  0  0  0
   47.9928   11.7184    1.8901 H   0  0  0  0  0  0
   45.6817   13.0929    1.4941 C   0  0  0  0  0  0
   46.1584   13.8645    2.5239 C   0  0  0  0  0  0
   45.6974   15.2032    2.5504 C   0  0  0  0  0  0
   44.8208   15.4730    1.5338 C   0  0  0  0  0  0
   44.5801   14.0537    0.5230 S   0  0  0  0  0  0
   44.0864   16.7135    1.2067 C   0  0  0  0  0  0
   43.5497   16.8315    0.0862 O   0  0  0  0  0  0
   44.0314   17.6290    2.0625 O   0  5  0  0  0  0
   46.0230   16.0790    3.5154 O   0  0  0  0  0  0
   47.2475   16.7611    3.3540 C   0  0  0  0  0  0
   47.1453   17.5345    2.5908 H   0  0  0  0  0  0
   48.0439   16.0848    3.0420 H   0  0  0  0  0  0
   47.6249   17.4002    4.6890 C   0  0  0  0  0  0
   48.7237   17.9966    4.7216 O   0  0  0  0  0  0
   46.8240   17.2864    5.6534 O   0  5  0  0  0  0
   47.2942   13.2484    3.9156 Br  0  0  0  0  0  0
   43.9968   11.2620    0.3283 H   0  0  0  0  0  0
  1  2  1  0  0  0
  2  7  1  0  0  0
  2  3  2  0  0  0
  3  4  1  0  0  0
  3 48  1  0  0  0
  4  5  2  0  0  0
  4 32  1  0  0  0
  5  6  1  0  0  0
  5 31  1  0  0  0
  6  7  2  0  0  0
  6  9  1  0  0  0
  7  8  1  0  0  0
  9 10  1  0  0  0
  9 11  1  0  0  0
 11 17  1  0  0  0
 11 12  1  0  0  0
 11 30  1  0  0  0
 12 13  1  0  0  0
 12 28  1  0  0  0
 12 29  1  0  0  0
 13 14  1  0  0  0
 13 26  1  0  0  0
 13 27  1  0  0  0
 14 15  1  0  0  0
 14 24  1  0  0  0
 14 25  1  0  0  0
 15 16  1  0  0  0
 15 22  1  0  0  0
 15 23  1  0  0  0
 16 17  1  0  0  0
 16 20  1  0  0  0
 16 21  1  0  0  0
 17 18  1  0  0  0
 17 19  1  0  0  0
 32 36  1  0  0  0
 32 33  2  0  0  0
 33 34  1  0  0  0
 33 47  1  0  0  0
 34 35  2  0  0  0
 34 40  1  0  0  0
 35 36  1  0  0  0
 35 37  1  0  0  0
 37 38  2  0  0  0
 37 39  1  0  0  0
 40 41  1  0  0  0
 41 42  1  0  0  0
 41 43  1  0  0  0
 41 44  1  0  0  0
 44 45  2  0  0  0
 44 46  1  0  0  0
M  CHG  2  39  -1  46  -1
M  END
> <s_m_source_file>
ligprep_ptp1b.smi

> <i_m_source_file_index>
15

> <i_lp_mmshare_version>
53161

> <i_f3d_flags>
0

> <s_epik_input>
Tz1DKFtPSF0pW0NIMl1PYyhjKHMxKUMoPU8pW09IXSljKEJyKWMxLWMyW2NIXVtjSF1bY0hdYyhbY0hdMilbTkhdW0NIXTNbQ0gyXVtDSDJdW0NIMl1bQ0gyXVtDSDJdW0NIMl0z

> <s_epik_cmdline>
J2VwaWtfcHl0aG9uJywgJy1waHQnLCAnMC4wJywgJy1waCcsICc3LjQnLCAnLXRuJywgJzgnLCAnLW1hJywgJzUwMCcsICctaW1hZScsICc8aW5maWxlLm1hZT4nLCAnLW9tYWUnLCAnPG91dGZpbGUubWFlPic=

> <r_lp_tautomer_probability>
1

> <r_epik_Ionization_Penalty>
0.0036

> <r_epik_Ionization_Penalty_Charging>
0.0001

> <r_epik_Ionization_Penalty_Neutral>
0.0035

> <r_epik_State_Penalty>
-0

> <r_epik_Charging_Adjusted_Penalty>
9.21585e-05

> <i_epik_Tot_Q>
-2

> <i_epik_Tot_abs_Q>
2

> <s_lp_Force_Field>
S-OPLS

> <r_lp_Energy>
53.9457

> <b_lp_Chiralities_Consistent>
1

> <s_lp_Variant>
lig_23476-1

> <s_i_glide_gridfile>
glide-grid_2QBS-PTP1B

> <i_i_glide_lignum>
15

> <i_i_glide_rotatable_bonds>
7

> <r_i_docking_score>
-8.85791

> <r_i_glide_ligand_efficiency>
-0.316354

> <r_i_glide_ligand_efficiency_sa>
-0.960637

> <r_i_glide_ligand_efficiency_ln>
-2.04467

> <r_i_glide_gscore>
-8.85791

> <r_i_glide_lipo>
-1.79631

> <r_i_glide_hbond>
-1.29803

> <r_i_glide_metal>
-0

> <r_i_glide_rewards>
-0.227959

> <r_i_glide_evdw>
-41.7965

> <r_i_glide_ecoul>
-29.9502

> <r_i_glide_erotb>
0.649342

> <r_i_glide_esite>
-0.0951284

> <r_i_glide_emodel>
-136.971

> <r_i_glide_energy>
-71.7467

> <r_i_glide_einternal>
4.20111

> <i_i_glide_confnum>
22

> <i_i_glide_posenum>
17

> <r_i_glide_eff_state_penalty>
-0

> <r_i_glide_rmsd>
0.0978318

> <s_glide_core_constrain_type>
snapped_core_restrain
$$$$