lig_0309
                    3D
 Schrodinger Suite 2021-1.
 70 76  0  0  1  0            999 V2000
  -17.9548  -10.1211   33.1991 H   0  0  0  0  0  0
  -18.4437  -10.8852   33.7944 C   0  0  0  0  0  0
  -18.4814  -10.8152   35.1567 C   0  0  0  0  0  0
  -17.8279   -9.7068   35.8806 C   0  0  0  0  0  0
  -17.7272   -8.4273   35.2877 C   0  0  0  0  0  0
  -18.0909   -8.2388   34.2888 H   0  0  0  0  0  0
  -17.3046   -7.3334   35.9414 N   0  0  0  0  0  0
  -16.9983   -7.4636   37.2433 C   0  0  0  0  0  0
  -16.7480   -6.2947   37.9491 N   0  0  0  0  0  0
  -15.6514   -5.4660   37.5206 C   0  0  0  0  0  0
  -14.9720   -6.0145   36.8654 H   0  0  0  0  0  0
  -16.0160   -4.5995   36.9681 H   0  0  0  0  0  0
  -14.9455   -5.0550   38.7947 C   0  0  0  0  0  0
  -14.0417   -4.5337   38.5265 H   0  0  0  0  0  0
  -14.5966   -5.9549   39.2986 H   0  0  0  0  0  0
  -15.8812   -4.2889   39.6666 N   0  3  0  0  0  0
  -16.2344   -3.5039   39.1108 H   0  0  0  0  0  0
  -17.0294   -5.1234   40.1032 C   0  0  0  0  0  0
  -17.7363   -4.5343   40.6796 H   0  0  0  0  0  0
  -16.6857   -5.9138   40.7664 H   0  0  0  0  0  0
  -17.7233   -5.7638   38.8980 C   0  0  0  0  0  0
  -18.2862   -4.9770   38.3978 H   0  0  0  0  0  0
  -18.4288   -6.5348   39.2101 H   0  0  0  0  0  0
  -16.9129   -8.7003   37.8969 C   0  0  0  0  0  0
  -16.5887   -8.7769   38.9244 H   0  0  0  0  0  0
  -17.2785   -9.8453   37.1767 C   0  0  0  0  0  0
  -17.1885  -10.8044   37.6596 H   0  0  0  0  0  0
  -19.1055  -11.8599   35.7891 N   0  0  0  0  0  0
  -19.6178  -12.9926   35.0835 C   0  0  0  0  0  0
  -20.0858  -13.8998   35.9618 N   0  0  0  0  0  0
  -19.9168  -13.3213   37.2158 C   0  0  0  0  0  0
  -20.2518  -13.8034   38.4991 N   0  0  0  0  0  0
  -19.8097  -13.3255   39.2694 H   0  0  0  0  0  0
  -21.2339  -14.6363   38.8658 C   0  0  0  0  0  0
  -21.8855  -15.3340   38.0981 O   0  0  0  0  0  0
  -21.4858  -14.6507   40.3468 C   0  0  0  0  0  0
  -21.4856  -15.8424   40.9886 N   0  0  0  0  0  0
  -21.5910  -15.8638   42.3384 C   0  0  0  0  0  0
  -21.4855  -17.0843   43.0395 C   0  0  0  0  0  0
  -21.3156  -18.0011   42.4975 H   0  0  0  0  0  0
  -21.5875  -17.1369   44.4425 C   0  0  0  0  0  0
  -21.5123  -18.0844   44.9581 H   0  0  0  0  0  0
  -21.7927  -15.9539   45.1749 C   0  0  0  0  0  0
  -21.8758  -15.9923   46.2513 H   0  0  0  0  0  0
  -21.8831  -14.7228   44.5012 C   0  0  0  0  0  0
  -22.0290  -13.8141   45.0665 H   0  0  0  0  0  0
  -21.7765  -14.6760   43.0957 C   0  0  0  0  0  0
  -21.8392  -13.4415   42.4228 C   0  0  0  0  0  0
  -21.9772  -12.5177   42.9688 H   0  0  0  0  0  0
  -21.6755  -13.4272   41.0277 C   0  0  0  0  0  0
  -21.6902  -12.4879   40.4950 H   0  0  0  0  0  0
  -19.3790  -12.0816   37.1274 C   0  0  0  0  0  0
  -19.1829  -11.3453   37.8860 H   0  0  0  0  0  0
  -19.5042  -12.9333   33.6460 C   0  0  0  0  0  0
  -19.9331  -13.9790   32.7933 N   0  0  0  0  0  0
  -21.2213  -14.6275   33.0162 C   0  0  0  0  0  0
  -21.4870  -14.6886   34.0691 H   0  0  0  0  0  0
  -21.9987  -14.0331   32.5369 H   0  0  0  0  0  0
  -21.2089  -16.0459   32.4122 C   0  0  0  0  0  0
  -22.2000  -16.4928   32.4982 H   0  0  0  0  0  0
  -20.5272  -16.6972   32.9597 H   0  0  0  0  0  0
  -20.8431  -15.9964   31.0370 O   0  0  0  0  0  0
  -19.5334  -15.4678   30.8667 C   0  0  0  0  0  0
  -19.2710  -15.4873   29.8089 H   0  0  0  0  0  0
  -18.8038  -16.0975   31.3781 H   0  0  0  0  0  0
  -19.4864  -14.0250   31.3975 C   0  0  0  0  0  0
  -20.1244  -13.3806   30.7905 H   0  0  0  0  0  0
  -18.4654  -13.6567   31.3002 H   0  0  0  0  0  0
  -18.9593  -11.9055   33.0516 N   0  0  0  0  0  0
  -15.3972   -3.9179   40.4691 H   0  0  0  0  0  0
  1  2  1  0  0  0
  2 69  1  0  0  0
  2  3  2  0  0  0
  3  4  1  0  0  0
  3 28  1  0  0  0
  4 26  1  0  0  0
  4  5  2  0  0  0
  5  6  1  0  0  0
  5  7  1  0  0  0
  7  8  2  0  0  0
  8  9  1  0  0  0
  8 24  1  0  0  0
  9 21  1  0  0  0
  9 10  1  0  0  0
 10 11  1  0  0  0
 10 12  1  0  0  0
 10 13  1  0  0  0
 13 14  1  0  0  0
 13 15  1  0  0  0
 13 16  1  0  0  0
 16 17  1  0  0  0
 16 18  1  0  0  0
 16 70  1  0  0  0
 18 19  1  0  0  0
 18 20  1  0  0  0
 18 21  1  0  0  0
 21 22  1  0  0  0
 21 23  1  0  0  0
 24 25  1  0  0  0
 24 26  2  0  0  0
 26 27  1  0  0  0
 28 52  1  0  0  0
 28 29  1  0  0  0
 29 30  2  0  0  0
 29 54  1  0  0  0
 30 31  1  0  0  0
 31 32  1  0  0  0
 31 52  2  0  0  0
 32 33  1  0  0  0
 32 34  1  0  0  0
 34 35  2  0  0  0
 34 36  1  0  0  0
 36 50  1  0  0  0
 36 37  2  0  0  0
 37 38  1  0  0  0
 38 47  2  0  0  0
 38 39  1  0  0  0
 39 40  1  0  0  0
 39 41  2  0  0  0
 41 42  1  0  0  0
 41 43  1  0  0  0
 43 44  1  0  0  0
 43 45  2  0  0  0
 45 46  1  0  0  0
 45 47  1  0  0  0
 47 48  1  0  0  0
 48 49  1  0  0  0
 48 50  2  0  0  0
 50 51  1  0  0  0
 52 53  1  0  0  0
 54 55  1  0  0  0
 54 69  2  0  0  0
 55 66  1  0  0  0
 55 56  1  0  0  0
 56 57  1  0  0  0
 56 58  1  0  0  0
 56 59  1  0  0  0
 59 60  1  0  0  0
 59 61  1  0  0  0
 59 62  1  0  0  0
 62 63  1  0  0  0
 63 64  1  0  0  0
 63 65  1  0  0  0
 63 66  1  0  0  0
 66 67  1  0  0  0
 66 68  1  0  0  0
M  CHG  1  16   1
M  END
> <s_m_source_file>
ligprep_pde10.smi

> <i_m_source_file_index>
1

> <i_lp_mmshare_version>
53161

> <i_f3d_flags>
0

> <s_epik_input>
W0NIMl0xW0NIMl1bTkhdW0NIMl1bQ0gyXU4xYyhbY0hdW2NIXTIpbltjSF1jMi1jM1tjSF1uYyhONFtDSDJdW0NIMl1PW0NIMl1bQ0gyXTQpYyhuMzUpbmMoW2NIXTUpW05IXUMoPU8pYyhuNilbY0hdW2NIXWMoYzY3KVtjSF1bY0hdW2NIXVtjSF03

> <s_epik_cmdline>
J2VwaWtfcHl0aG9uJywgJy1waHQnLCAnMC4wJywgJy1waCcsICc3LjQnLCAnLXRuJywgJzgnLCAnLW1hJywgJzUwMCcsICctaW1hZScsICc8aW5maWxlLm1hZT4nLCAnLW9tYWUnLCAnPG91dGZpbGUubWFlPic=

> <r_lp_tautomer_probability>
1

> <r_epik_Ionization_Penalty>
0.0249

> <r_epik_Ionization_Penalty_Charging>
0.0243

> <r_epik_Ionization_Penalty_Neutral>
0.0006

> <r_epik_State_Penalty>
-0

> <r_epik_Charging_Adjusted_Penalty>
0.0243283

> <i_epik_Tot_Q>
1

> <i_epik_Tot_abs_Q>
1

> <s_lp_Force_Field>
S-OPLS

> <r_lp_Energy>
88.8854

> <b_lp_Chiralities_Consistent>
1

> <s_lp_Variant>
lig_0309-1

> <s_i_glide_gridfile>
glide-grid_4BBX-PDE10

> <i_i_glide_lignum>
1

> <i_i_glide_rotatable_bonds>
6

> <r_i_docking_score>
-7.41838

> <r_i_glide_ligand_efficiency>
-0.18546

> <r_i_glide_ligand_efficiency_sa>
-0.634263

> <r_i_glide_ligand_efficiency_ln>
-1.58212

> <r_i_glide_gscore>
-7.41838

> <r_i_glide_lipo>
-4.20425

> <r_i_glide_hbond>
-0.458151

> <r_i_glide_metal>
-0

> <r_i_glide_rewards>
-0.103332

> <r_i_glide_evdw>
-49.2168

> <r_i_glide_ecoul>
-3.48083

> <r_i_glide_erotb>
0.430317

> <r_i_glide_esite>
-0.1

> <r_i_glide_emodel>
-48.5081

> <r_i_glide_energy>
-52.6976

> <r_i_glide_einternal>
19.6028

> <i_i_glide_confnum>
123

> <i_i_glide_posenum>
123

> <r_i_glide_eff_state_penalty>
-0

> <r_i_glide_rmsd>
0.0951378

> <s_glide_core_constrain_type>
snapped_core_restrain
$$$$