lig_50181001
                    3D
 Schrodinger Suite 2021-1.
 60 64  0  0  1  0            999 V2000
   17.6693    3.4827  -40.1381 C   0  0  0  0  0  0
   17.4671    3.5253  -38.6638 C   0  0  0  0  0  0
   15.9816    3.8533  -38.4072 C   0  0  0  0  0  0
   15.1325    2.6759  -37.8876 C   0  0  0  0  0  0
   13.7969    3.0823  -37.6493 O   0  0  0  0  0  0
   12.8926    2.6606  -38.5831 C   0  0  0  0  0  0
   13.2338    2.5080  -39.9440 C   0  0  0  0  0  0
   12.2739    1.9834  -40.7974 C   0  0  0  0  0  0
   11.0174    1.6055  -40.2769 C   0  0  0  0  0  0
   10.6537    1.8214  -39.0029 N   0  0  0  0  0  0
   11.5753    2.3494  -38.1782 C   0  0  0  0  0  0
   11.0889    2.6258  -36.5521 Cl  0  0  0  0  0  0
   12.4993    1.8245  -42.2292 C   0  0  0  0  0  0
   13.4759    1.0532  -42.7181 N   0  0  0  0  0  0
   13.2826    0.9047  -44.0985 N   0  0  0  0  0  0
   12.2235    1.6532  -44.4025 C   0  0  0  0  0  0
   11.7889    2.2378  -43.2902 N   0  0  0  0  0  0
   10.7218    3.1523  -43.3081 C   0  0  0  0  0  0
   10.2666    3.9667  -42.2329 C   0  0  0  0  0  0
    9.1935    4.8714  -42.3535 C   0  0  0  0  0  0
    8.5307    5.0041  -43.5809 C   0  0  0  0  0  0
    8.9588    4.2406  -44.6736 C   0  0  0  0  0  0
   10.0387    3.3432  -44.5551 C   0  0  0  0  0  0
   10.4516    2.6827  -45.6691 N   0  0  0  0  0  0
   11.5371    1.8824  -45.6161 C   0  0  0  0  0  0
   11.9785    1.2220  -46.9108 C   0  0  0  0  0  0
    8.7433    5.6735  -41.1416 C   0  0  0  0  0  0
    8.3355    7.0412  -41.4450 N   0  0  0  0  0  0
    9.4544    7.8679  -41.8990 C   0  0  0  0  0  0
    9.0302    9.3211  -42.1796 C   0  0  0  0  0  0
    8.4275    9.8791  -41.0189 O   0  0  0  0  0  0
    7.2956    9.1340  -40.5869 C   0  0  0  0  0  0
    7.7064    7.6794  -40.2910 C   0  0  0  0  0  0
   18.7242    3.4821  -40.3408 H   0  0  0  0  0  0
   17.2934    4.3892  -40.6068 H   0  0  0  0  0  0
   17.1370    2.6621  -40.5526 H   0  0  0  0  0  0
   17.9246    2.6826  -38.1581 H   0  0  0  0  0  0
   18.1345    4.2825  -38.3182 H   0  0  0  0  0  0
   15.9269    4.7140  -37.7529 H   0  0  0  0  0  0
   15.5240    4.2549  -39.3106 H   0  0  0  0  0  0
   15.1959    1.8234  -38.5590 H   0  0  0  0  0  0
   15.5239    2.2824  -36.9538 H   0  0  0  0  0  0
   14.2035    2.7811  -40.3377 H   0  0  0  0  0  0
   10.2564    1.1848  -40.9198 H   0  0  0  0  0  0
   10.7647    3.9455  -41.2797 H   0  0  0  0  0  0
    7.6924    5.6798  -43.6848 H   0  0  0  0  0  0
    8.4610    4.3547  -45.6264 H   0  0  0  0  0  0
   12.9954    1.5246  -47.1560 H   0  0  0  0  0  0
   11.9534    0.1349  -46.8175 H   0  0  0  0  0  0
   11.3333    1.4972  -47.7449 H   0  0  0  0  0  0
    7.8963    5.1363  -40.7160 H   0  0  0  0  0  0
    9.5233    5.6669  -40.3800 H   0  0  0  0  0  0
   10.2440    7.8703  -41.1470 H   0  0  0  0  0  0
    9.8937    7.4487  -42.8056 H   0  0  0  0  0  0
    8.3317    9.3701  -43.0152 H   0  0  0  0  0  0
    9.8902    9.9295  -42.4556 H   0  0  0  0  0  0
    6.5231    9.1670  -41.3547 H   0  0  0  0  0  0
    6.8784    9.5957  -39.6939 H   0  0  0  0  0  0
    6.8268    7.1081  -39.9876 H   0  0  0  0  0  0
    8.3914    7.6718  -39.4438 H   0  0  0  0  0  0
  1  2  1  0  0  0
  1 34  1  0  0  0
  1 35  1  0  0  0
  1 36  1  0  0  0
  2  3  1  0  0  0
  2 37  1  0  0  0
  2 38  1  0  0  0
  3  4  1  0  0  0
  3 39  1  0  0  0
  3 40  1  0  0  0
  4  5  1  0  0  0
  4 41  1  0  0  0
  4 42  1  0  0  0
  5  6  1  0  0  0
  6 11  1  0  0  0
  6  7  2  0  0  0
  7  8  1  0  0  0
  7 43  1  0  0  0
  8  9  2  0  0  0
  8 13  1  0  0  0
  9 10  1  0  0  0
  9 44  1  0  0  0
 10 11  2  0  0  0
 11 12  1  0  0  0
 13 17  1  0  0  0
 13 14  2  0  0  0
 14 15  1  0  0  0
 15 16  2  0  0  0
 16 25  1  0  0  0
 16 17  1  0  0  0
 17 18  1  0  0  0
 18 23  1  0  0  0
 18 19  2  0  0  0
 19 20  1  0  0  0
 19 45  1  0  0  0
 20 21  2  0  0  0
 20 27  1  0  0  0
 21 22  1  0  0  0
 21 46  1  0  0  0
 22 23  2  0  0  0
 22 47  1  0  0  0
 23 24  1  0  0  0
 24 25  2  0  0  0
 25 26  1  0  0  0
 26 48  1  0  0  0
 26 49  1  0  0  0
 26 50  1  0  0  0
 27 28  1  0  0  0
 27 51  1  0  0  0
 27 52  1  0  0  0
 28 33  1  0  0  0
 28 29  1  0  0  0
 29 30  1  0  0  0
 29 53  1  0  0  0
 29 54  1  0  0  0
 30 31  1  0  0  0
 30 55  1  0  0  0
 30 56  1  0  0  0
 31 32  1  0  0  0
 32 33  1  0  0  0
 32 57  1  0  0  0
 32 58  1  0  0  0
 33 59  1  0  0  0
 33 60  1  0  0  0
M  END
> <s_m_source_file>
ligprep_pde2.smi

> <i_m_source_file_index>
21

> <i_lp_mmshare_version>
53161

> <i_f3d_flags>
0

> <s_epik_input>
W0NIM11bQ0gyXVtDSDJdW0NIMl1PYzFbY0hdYyhbY0hdbmMxQ2wpLWMobm4yKW4oYzIzKWM0YyhuYzNbQ0gzXSlbY0hdW2NIXWMoW2NIXTQpW0NIMl1ONVtDSDJdW0NIMl1PW0NIMl1bQ0gyXTU=

> <s_epik_cmdline>
J2VwaWtfcHl0aG9uJywgJy1waHQnLCAnMC4wJywgJy1waCcsICc3LjQnLCAnLXRuJywgJzgnLCAnLW1hJywgJzUwMCcsICctaW1hZScsICc8aW5maWxlLm1hZT4nLCAnLW9tYWUnLCAnPG91dGZpbGUubWFlPic=

> <r_lp_tautomer_probability>
1

> <r_epik_Ionization_Penalty>
0.1301

> <r_epik_Ionization_Penalty_Charging>
0

> <r_epik_Ionization_Penalty_Neutral>
0.1301

> <r_epik_State_Penalty>
0.1195

> <r_epik_Charging_Adjusted_Penalty>
0.119465

> <i_epik_Tot_Q>
0

> <i_epik_Tot_abs_Q>
0

> <s_lp_Force_Field>
S-OPLS

> <r_lp_Energy>
51.0539

> <b_lp_Chiralities_Consistent>
1

> <s_lp_Variant>
lig_50181001-1

> <s_i_glide_gridfile>
glide-grid_6C7E-PDE2

> <i_i_glide_lignum>
21

> <i_i_glide_rotatable_bonds>
7

> <r_i_docking_score>
-6.02921

> <r_i_glide_ligand_efficiency>
-0.182703

> <r_i_glide_ligand_efficiency_sa>
-0.586027

> <r_i_glide_ligand_efficiency_ln>
-1.34086

> <r_i_glide_gscore>
-6.14871

> <r_i_glide_lipo>
-3.28149

> <r_i_glide_hbond>
-0.356338

> <r_i_glide_metal>
-0

> <r_i_glide_rewards>
-0.856859

> <r_i_glide_evdw>
-20.3558

> <r_i_glide_ecoul>
-7.51333

> <r_i_glide_erotb>
0.555239

> <r_i_glide_esite>
-0.0644647

> <r_i_glide_emodel>
-44.1731

> <r_i_glide_energy>
-27.8692

> <r_i_glide_einternal>
6.70062

> <i_i_glide_confnum>
135

> <i_i_glide_posenum>
107

> <r_i_glide_eff_state_penalty>
0.1195

> <r_i_glide_rmsd>
0.0957194

> <s_glide_core_constrain_type>
snapped_core_restrain
$$$$