lig_0848
                    3D
 Schrodinger Suite 2021-1.
 75 82  0  0  1  0            999 V2000
  -18.0867   -9.9357   33.3290 H   0  0  0  0  0  0
  -18.4972  -10.7788   33.8955 C   0  0  0  0  0  0
  -18.4751  -10.7911   35.2651 C   0  0  0  0  0  0
  -17.8149   -9.7391   36.1102 C   0  0  0  0  0  0
  -16.6123   -9.0871   35.7333 C   0  0  0  0  0  0
  -16.1321   -9.3514   34.8028 H   0  0  0  0  0  0
  -16.0235   -8.0949   36.4555 N   0  0  0  0  0  0
  -16.5913   -7.7239   37.6314 C   0  0  0  0  0  0
  -16.0960   -6.6272   38.3544 N   0  0  0  0  0  0
  -14.7463   -6.7058   38.8957 C   0  0  0  0  0  0
  -14.6984   -5.9772   39.6964 H   0  0  0  0  0  0
  -14.5266   -7.6883   39.2915 H   0  0  0  0  0  0
  -13.7093   -6.2813   37.8263 C   0  0  0  0  0  0
  -13.6531   -6.9934   36.9962 H   0  0  0  0  0  0
  -12.7082   -6.2465   38.2641 H   0  0  0  0  0  0
  -14.0483   -4.9463   37.2988 N   0  3  0  0  0  0
  -13.4188   -4.6428   36.5584 H   0  0  0  0  0  0
  -15.4191   -4.8311   36.7811 C   0  0  0  0  0  0
  -15.5042   -5.3746   35.8482 H   0  0  0  0  0  0
  -15.4860   -3.7783   36.5526 H   0  0  0  0  0  0
  -16.4669   -5.3200   37.8099 C   0  0  0  0  0  0
  -17.4860   -5.3498   37.3849 H   0  0  0  0  0  0
  -16.5397   -4.6150   38.6435 H   0  0  0  0  0  0
  -17.7363   -8.3423   38.1325 C   0  0  0  0  0  0
  -18.1921   -8.0256   39.0581 H   0  0  0  0  0  0
  -18.3302   -9.3433   37.3677 C   0  0  0  0  0  0
  -19.2739   -9.7142   37.7253 H   0  0  0  0  0  0
  -19.0664  -11.8863   35.8314 N   0  0  0  0  0  0
  -19.6227  -12.9727   35.1048 C   0  0  0  0  0  0
  -20.0808  -13.9212   35.9460 N   0  0  0  0  0  0
  -19.8550  -13.4200   37.2216 C   0  0  0  0  0  0
  -20.1388  -14.0722   38.5493 C   0  0  0  0  0  0
  -19.3032  -14.7068   38.8375 H   0  0  0  0  0  0
  -20.3710  -12.9805   39.6102 C   0  0  0  0  0  0
  -20.9051  -12.1392   39.1727 H   0  0  0  0  0  0
  -19.4849  -12.6519   40.1785 H   0  0  0  0  0  0
  -21.2685  -13.9035   40.2806 N   0  0  0  0  0  0
  -22.4133  -13.3233   40.8957 C   0  0  0  0  0  0
  -22.4789  -11.9715   41.0128 N   0  0  0  0  0  0
  -23.5652  -11.3573   41.5118 C   0  0  0  0  0  0
  -23.6199   -9.9509   41.5664 C   0  0  0  0  0  0
  -22.7731   -9.3679   41.2296 H   0  0  0  0  0  0
  -24.7634   -9.2826   42.0561 C   0  0  0  0  0  0
  -24.7965   -8.2006   42.0725 H   0  0  0  0  0  0
  -25.8684  -10.0287   42.5108 C   0  0  0  0  0  0
  -26.7495   -9.5140   42.8781 H   0  0  0  0  0  0
  -25.8256  -11.4341   42.4789 C   0  0  0  0  0  0
  -26.6831  -11.9992   42.8240 H   0  0  0  0  0  0
  -24.6831  -12.1009   41.9764 C   0  0  0  0  0  0
  -24.6224  -13.5013   41.9175 C   0  0  0  0  0  0
  -25.4449  -14.1075   42.2604 H   0  0  0  0  0  0
  -23.4776  -14.1129   41.3731 C   0  0  0  0  0  0
  -23.4189  -15.1857   41.3031 H   0  0  0  0  0  0
  -21.4692  -14.6449   39.0327 C   0  0  0  0  0  0
  -21.4715  -15.7209   39.1863 H   0  0  0  0  0  0
  -22.2754  -14.3182   38.4195 H   0  0  0  0  0  0
  -19.2296  -12.2139   37.1495 C   0  0  0  0  0  0
  -18.8052  -11.6480   37.9494 H   0  0  0  0  0  0
  -19.5376  -12.8493   33.6721 C   0  0  0  0  0  0
  -19.9508  -13.8852   32.7949 N   0  0  0  0  0  0
  -21.2016  -14.6006   33.0241 C   0  0  0  0  0  0
  -21.4430  -14.7113   34.0771 H   0  0  0  0  0  0
  -22.0097  -14.0317   32.5841 H   0  0  0  0  0  0
  -21.1544  -16.0010   32.3726 C   0  0  0  0  0  0
  -22.1327  -16.4800   32.4358 H   0  0  0  0  0  0
  -20.4559  -16.6601   32.8975 H   0  0  0  0  0  0
  -20.7808  -15.9015   30.9994 O   0  0  0  0  0  0
  -19.4884  -15.3210   30.8504 C   0  0  0  0  0  0
  -19.2134  -15.3101   29.7969 H   0  0  0  0  0  0
  -18.7387  -15.9249   31.3662 H   0  0  0  0  0  0
  -19.5084  -13.8859   31.4012 C   0  0  0  0  0  0
  -20.1686  -13.2557   30.8037 H   0  0  0  0  0  0
  -18.5058  -13.4746   31.3225 H   0  0  0  0  0  0
  -19.0070  -11.7905   33.1169 N   0  0  0  0  0  0
  -13.9331   -4.2755   38.0471 H   0  0  0  0  0  0
  1  2  1  0  0  0
  2 74  1  0  0  0
  2  3  2  0  0  0
  3  4  1  0  0  0
  3 28  1  0  0  0
  4 26  1  0  0  0
  4  5  2  0  0  0
  5  6  1  0  0  0
  5  7  1  0  0  0
  7  8  2  0  0  0
  8  9  1  0  0  0
  8 24  1  0  0  0
  9 21  1  0  0  0
  9 10  1  0  0  0
 10 11  1  0  0  0
 10 12  1  0  0  0
 10 13  1  0  0  0
 13 14  1  0  0  0
 13 15  1  0  0  0
 13 16  1  0  0  0
 16 17  1  0  0  0
 16 18  1  0  0  0
 16 75  1  0  0  0
 18 19  1  0  0  0
 18 20  1  0  0  0
 18 21  1  0  0  0
 21 22  1  0  0  0
 21 23  1  0  0  0
 24 25  1  0  0  0
 24 26  2  0  0  0
 26 27  1  0  0  0
 28 57  1  0  0  0
 28 29  1  0  0  0
 29 30  2  0  0  0
 29 59  1  0  0  0
 30 31  1  0  0  0
 31 32  1  0  0  0
 31 57  2  0  0  0
 32 54  1  0  0  0
 32 33  1  0  0  0
 32 34  1  0  0  0
 34 35  1  0  0  0
 34 36  1  0  0  0
 34 37  1  0  0  0
 37 38  1  0  0  0
 37 54  1  0  0  0
 38 52  1  0  0  0
 38 39  2  0  0  0
 39 40  1  0  0  0
 40 49  2  0  0  0
 40 41  1  0  0  0
 41 42  1  0  0  0
 41 43  2  0  0  0
 43 44  1  0  0  0
 43 45  1  0  0  0
 45 46  1  0  0  0
 45 47  2  0  0  0
 47 48  1  0  0  0
 47 49  1  0  0  0
 49 50  1  0  0  0
 50 51  1  0  0  0
 50 52  2  0  0  0
 52 53  1  0  0  0
 54 55  1  0  0  0
 54 56  1  0  0  0
 57 58  1  0  0  0
 59 60  1  0  0  0
 59 74  2  0  0  0
 60 71  1  0  0  0
 60 61  1  0  0  0
 61 62  1  0  0  0
 61 63  1  0  0  0
 61 64  1  0  0  0
 64 65  1  0  0  0
 64 66  1  0  0  0
 64 67  1  0  0  0
 67 68  1  0  0  0
 68 69  1  0  0  0
 68 70  1  0  0  0
 68 71  1  0  0  0
 71 72  1  0  0  0
 71 73  1  0  0  0
M  CHG  1  16   1
M  END
> <s_m_source_file>
ligprep_pde10.smi

> <i_m_source_file_index>
5

> <i_lp_mmshare_version>
53161

> <i_f3d_flags>
0

> <s_epik_input>
W0NIMl0xW0NIMl1bTkhdW0NIMl1bQ0gyXU4xYyhbY0hdW2NIXTIpbltjSF1jMi1jM1tjSF1uYyhONFtDSDJdW0NIMl1PW0NIMl1bQ0gyXTQpYyhuMzUpbmMoW2NIXTUpW0NIXTZbQ0gyXU4oW0NIMl02KWMobjcpW2NIXVtjSF1jKGM3OClbY0hdW2NIXVtjSF1bY0hdOA==

> <s_epik_cmdline>
J2VwaWtfcHl0aG9uJywgJy1waHQnLCAnMC4wJywgJy1waCcsICc3LjQnLCAnLXRuJywgJzgnLCAnLW1hJywgJzUwMCcsICctaW1hZScsICc8aW5maWxlLm1hZT4nLCAnLW9tYWUnLCAnPG91dGZpbGUubWFlPic=

> <r_lp_tautomer_probability>
1

> <r_epik_Ionization_Penalty>
0.2704

> <r_epik_Ionization_Penalty_Charging>
0.0571

> <r_epik_Ionization_Penalty_Neutral>
0.2134

> <r_epik_State_Penalty>
-0

> <r_epik_Charging_Adjusted_Penalty>
0.0570522

> <i_epik_Tot_Q>
1

> <i_epik_Tot_abs_Q>
1

> <s_lp_Force_Field>
S-OPLS

> <r_lp_Energy>
82.2468

> <b_lp_Chiralities_Consistent>
1

> <s_lp_Variant>
lig_0848-1

> <s_i_glide_gridfile>
glide-grid_4BBX-PDE10

> <i_i_glide_lignum>
6

> <i_i_glide_rotatable_bonds>
5

> <r_i_docking_score>
-7.55962

> <r_i_glide_ligand_efficiency>
-0.184381

> <r_i_glide_ligand_efficiency_sa>
-0.635786

> <r_i_glide_ligand_efficiency_ln>
-1.6038

> <r_i_glide_gscore>
-7.55962

> <r_i_glide_lipo>
-4.62559

> <r_i_glide_hbond>
-0.381342

> <r_i_glide_metal>
-0

> <r_i_glide_rewards>
-0.158023

> <r_i_glide_evdw>
-49.4221

> <r_i_glide_ecoul>
-1.36664

> <r_i_glide_erotb>
0.344202

> <r_i_glide_esite>
-0.0627608

> <r_i_glide_emodel>
-58.8868

> <r_i_glide_energy>
-50.7888

> <r_i_glide_einternal>
10.567

> <i_i_glide_confnum>
382

> <i_i_glide_posenum>
215

> <r_i_glide_eff_state_penalty>
-0

> <r_i_glide_rmsd>
0.0990539

> <s_glide_core_constrain_type>
snapped_core_restrain
$$$$