lig_19
                    3D
 Schrodinger Suite 2021-1.
 50 53  0  0  1  0            999 V2000
   30.4806   18.3679    8.8340 H   0  0  0  0  0  0
   29.5452   18.1051    9.3080 C   0  0  0  0  0  0
   28.8799   16.9229    8.9339 C   0  0  0  0  0  0
   29.3892   16.2065    7.9311 F   0  0  0  0  0  0
   27.6442   16.5460    9.4976 C   0  0  0  0  0  0
   26.9367   15.3270    9.0435 C   0  0  0  0  0  0
   27.6396   14.1276    8.8013 C   0  0  0  0  0  0
   28.7059   14.0812    8.9697 H   0  0  0  0  0  0
   26.9799   12.9805    8.3311 C   0  0  0  0  0  0
   27.5411   12.0713    8.1676 H   0  0  0  0  0  0
   25.5923   12.9968    8.1095 C   0  0  0  0  0  0
   24.9993   11.8214    7.7020 O   0  0  0  0  0  0
   23.5972   11.6817    7.9208 C   0  0  0  0  0  0
   23.3202   11.4399    9.4206 C   0  0  0  0  0  0
   22.2509   11.3690    9.6176 H   0  0  0  0  0  0
   23.7733   10.5071    9.7541 H   0  0  0  0  0  0
   23.7174   12.2333   10.0542 H   0  0  0  0  0  0
   23.1835   10.4331    7.1288 C   0  0  0  0  0  0
   22.1196   10.2250    7.2461 H   0  0  0  0  0  0
   23.3824   10.5591    6.0649 H   0  0  0  0  0  0
   23.7331    9.5534    7.4621 H   0  0  0  0  0  0
   22.8743   12.9218    7.3569 C   0  0  0  0  0  0
   21.7917   12.8220    7.4506 H   0  0  0  0  0  0
   23.0724   12.9526    6.2845 H   0  0  0  0  0  0
   23.3661   14.2412    7.9927 C   0  0  1  0  0  0
   22.9897   15.4461    7.1123 C   0  0  0  0  0  0
   23.4090   15.6294    5.9677 O   0  0  0  0  0  0
   22.1592   16.2284    7.7938 N   0  0  0  0  0  0
   21.5888   17.5107    7.3853 C   0  0  0  0  0  0
   22.0173   17.8611    6.4454 H   0  0  0  0  0  0
   20.5058   17.4358    7.2705 H   0  0  0  0  0  0
   21.8001   18.2490    8.1524 H   0  0  0  0  0  0
   21.9543   15.6444    9.0259 C   0  0  0  0  0  0
   21.1218   16.2646    9.9311 N   0  0  0  0  0  0
   21.0934   15.9645   10.9059 H   0  0  0  0  0  0
   22.5943   14.5427    9.1894 N   0  0  0  0  0  0
   24.8674   14.1995    8.3054 C   0  0  0  0  0  0
   25.5455   15.3427    8.7965 C   0  0  0  0  0  0
   24.9940   16.2569    8.9630 H   0  0  0  0  0  0
   27.1014   17.4005   10.4749 C   0  0  0  0  0  0
   26.1614   17.1485   10.9444 H   0  0  0  0  0  0
   27.7484   18.5932   10.8529 C   0  0  0  0  0  0
   27.1385   19.3001   11.8612 O   0  0  0  0  0  0
   27.2686   20.7019   11.8109 C   0  0  0  0  0  0
   26.6503   21.1643   12.5819 H   0  0  0  0  0  0
   28.2967   21.0267   11.9676 H   0  0  0  0  0  0
   26.9159   21.0488   10.8401 H   0  0  0  0  0  0
   28.9775   18.9548   10.2675 C   0  0  0  0  0  0
   29.5002   19.8559   10.5522 H   0  0  0  0  0  0
   20.7099   17.1836    9.8146 H   0  0  0  0  0  0
  1  2  1  0  0  0
  2 48  1  0  0  0
  2  3  2  0  0  0
  3  4  1  0  0  0
  3  5  1  0  0  0
  5  6  1  0  0  0
  5 40  2  0  0  0
  6 38  1  0  0  0
  6  7  2  0  0  0
  7  8  1  0  0  0
  7  9  1  0  0  0
  9 10  1  0  0  0
  9 11  2  0  0  0
 11 37  1  0  0  0
 11 12  1  0  0  0
 12 13  1  0  0  0
 13 14  1  0  0  0
 13 18  1  0  0  0
 13 22  1  0  0  0
 14 15  1  0  0  0
 14 16  1  0  0  0
 14 17  1  0  0  0
 18 19  1  0  0  0
 18 20  1  0  0  0
 18 21  1  0  0  0
 22 23  1  0  0  0
 22 24  1  0  0  0
 22 25  1  0  0  0
 25 36  1  0  0  0
 25 26  1  0  0  0
 25 37  1  0  0  0
 26 27  2  0  0  0
 26 28  1  0  0  0
 28 29  1  0  0  0
 28 33  1  0  0  0
 29 30  1  0  0  0
 29 31  1  0  0  0
 29 32  1  0  0  0
 33 34  1  0  0  0
 33 36  2  0  0  0
 34 35  1  0  0  0
 34 50  1  0  0  0
 37 38  2  0  0  0
 38 39  1  0  0  0
 40 41  1  0  0  0
 40 42  1  0  0  0
 42 43  1  0  0  0
 42 48  2  0  0  0
 43 44  1  0  0  0
 44 45  1  0  0  0
 44 46  1  0  0  0
 44 47  1  0  0  0
 48 49  1  0  0  0
M  END
> <s_m_source_file>
ligprep_bace_hunt.smi

> <i_m_source_file_index>
9

> <i_lp_mmshare_version>
53161

> <i_f3d_flags>
0

> <s_epik_input>
RmMxW2NIXVtjSF1jKE9bQ0gzXSlbY0hdYzEtYyhbY0hdMilbY0hdW2NIXWMoT0MoW0NIM10pKFtDSDNdKVtDSDJdMyljMltDQEBdMzRDKD1PKU4oW0NIM10pQyg9TjQpW05IMl0=

> <s_epik_cmdline>
J2VwaWtfcHl0aG9uJywgJy1waHQnLCAnMC4wJywgJy1waCcsICc3LjQnLCAnLXRuJywgJzgnLCAnLW1hJywgJzUwMCcsICctaW1hZScsICc8aW5maWxlLm1hZT4nLCAnLW9tYWUnLCAnPG91dGZpbGUubWFlPic=

> <r_lp_tautomer_probability>
1

> <r_epik_Ionization_Penalty>
1.0455

> <r_epik_Ionization_Penalty_Charging>
0

> <r_epik_Ionization_Penalty_Neutral>
1.0455

> <r_epik_State_Penalty>
-0

> <r_epik_Charging_Adjusted_Penalty>
0

> <i_epik_Tot_Q>
0

> <i_epik_Tot_abs_Q>
0

> <s_epik_Chemistry_Notes>
This compound has an imine and may undergo hydrolysis.

> <s_lp_Force_Field>
S-OPLS

> <r_lp_Energy>
40.7641

> <b_lp_Chiralities_Consistent>
1

> <s_lp_Variant>
lig_19-1

> <s_i_glide_gridfile>
glide-grid_4JPC-BACE_HUNT

> <i_i_glide_lignum>
9

> <i_i_glide_rotatable_bonds>
2

> <r_i_docking_score>
-6.04225

> <r_i_glide_ligand_efficiency>
-0.215795

> <r_i_glide_ligand_efficiency_sa>
-0.655279

> <r_i_glide_ligand_efficiency_ln>
-1.39473

> <r_i_glide_gscore>
-6.04225

> <r_i_glide_lipo>
-2.51092

> <r_i_glide_hbond>
-0.236825

> <r_i_glide_metal>
-0

> <r_i_glide_rewards>
-0.926882

> <r_i_glide_evdw>
-39.7115

> <r_i_glide_ecoul>
-3.25375

> <r_i_glide_erotb>
0.264365

> <r_i_glide_esite>
-0.158344

> <r_i_glide_emodel>
-55.8294

> <r_i_glide_energy>
-42.9653

> <r_i_glide_einternal>
1.36807

> <i_i_glide_confnum>
29

> <i_i_glide_posenum>
30

> <r_i_glide_eff_state_penalty>
-0

> <r_i_glide_rmsd>
0.0975281

> <s_glide_core_constrain_type>
snapped_core_restrain
$$$$