lig_48168913
                    3D
 Schrodinger Suite 2021-1.
 50 54  0  0  1  0            999 V2000
   10.0005    0.9292  -40.7753 C   0  0  0  0  0  0
   11.1594    1.6303  -40.0903 C   0  0  0  0  0  0
   12.3145    2.0391  -40.8046 C   0  0  0  0  0  0
   13.4048    2.5682  -40.0778 C   0  0  0  0  0  0
   13.2789    2.6980  -38.6783 C   0  0  0  0  0  0
   12.0665    2.3179  -38.0708 C   0  0  0  0  0  0
   11.0303    1.7922  -38.7536 N   0  0  0  0  0  0
   12.4521    1.8310  -42.2526 C   0  0  0  0  0  0
   13.3856    1.0092  -42.7485 N   0  0  0  0  0  0
   13.2034    0.8767  -44.1252 N   0  0  0  0  0  0
   12.1586    1.6555  -44.4213 C   0  0  0  0  0  0
   11.7494    2.2697  -43.3067 N   0  0  0  0  0  0
   10.7096    3.2060  -43.3251 C   0  0  0  0  0  0
   10.2959    4.0535  -42.2596 C   0  0  0  0  0  0
    9.2399    4.9829  -42.3808 C   0  0  0  0  0  0
    8.5308    5.0765  -43.5836 C   0  0  0  0  0  0
    8.9227    4.2842  -44.6726 C   0  0  0  0  0  0
   10.0017    3.3873  -44.5646 C   0  0  0  0  0  0
   10.3841    2.6961  -45.6712 N   0  0  0  0  0  0
   11.4636    1.8832  -45.6254 C   0  0  0  0  0  0
   11.8704    1.2162  -46.9223 C   0  0  0  0  0  0
    8.8377    5.8526  -41.1933 C   0  0  0  0  0  0
    7.9221    5.1872  -40.3020 N   0  0  0  0  0  0
    8.5076    4.0267  -39.6288 C   0  0  0  0  0  0
    7.4964    3.3590  -38.6949 C   0  0  0  0  0  0
    7.0418    4.3259  -37.7568 O   0  0  0  0  0  0
    6.4385    5.4747  -38.3520 C   0  0  0  0  0  0
    7.4327    6.1280  -39.3023 C   0  0  0  0  0  0
    9.5810    1.5512  -41.5609 H   0  0  0  0  0  0
   10.3433   -0.0027  -41.2169 H   0  0  0  0  0  0
    9.1981    0.7027  -40.0687 H   0  0  0  0  0  0
   14.3249    2.8493  -40.5652 H   0  0  0  0  0  0
   14.0984    3.0941  -38.0908 H   0  0  0  0  0  0
   11.9366    2.4212  -37.0025 H   0  0  0  0  0  0
   10.8186    4.0156  -41.3223 H   0  0  0  0  0  0
    7.7023    5.7620  -43.6787 H   0  0  0  0  0  0
    8.3910    4.3803  -45.6078 H   0  0  0  0  0  0
   11.9243    0.1346  -46.7905 H   0  0  0  0  0  0
   11.1613    1.4254  -47.7227 H   0  0  0  0  0  0
   12.8567    1.5688  -47.2281 H   0  0  0  0  0  0
    8.3464    6.8245  -41.4856 H   0  0  0  0  0  0
    9.7476    6.1403  -40.6546 H   0  0  0  0  0  0
    9.3875    4.3263  -39.0580 H   0  0  0  0  0  0
    8.8409    3.2884  -40.3477 H   0  0  0  0  0  0
    6.6436    2.9733  -39.2570 H   0  0  0  0  0  0
    7.9529    2.5192  -38.1728 H   0  0  0  0  0  0
    5.5272    5.1798  -38.8845 H   0  0  0  0  0  0
    6.1589    6.1829  -37.5720 H   0  0  0  0  0  0
    6.9539    6.9763  -39.7880 H   0  0  0  0  0  0
    8.2688    6.5212  -38.7282 H   0  0  0  0  0  0
  1  2  1  0  0  0
  1 29  1  0  0  0
  1 30  1  0  0  0
  1 31  1  0  0  0
  2  7  1  0  0  0
  2  3  2  0  0  0
  3  4  1  0  0  0
  3  8  1  0  0  0
  4  5  2  0  0  0
  4 32  1  0  0  0
  5  6  1  0  0  0
  5 33  1  0  0  0
  6  7  2  0  0  0
  6 34  1  0  0  0
  8 12  1  0  0  0
  8  9  2  0  0  0
  9 10  1  0  0  0
 10 11  2  0  0  0
 11 20  1  0  0  0
 11 12  1  0  0  0
 12 13  1  0  0  0
 13 18  1  0  0  0
 13 14  2  0  0  0
 14 15  1  0  0  0
 14 35  1  0  0  0
 15 16  2  0  0  0
 15 22  1  0  0  0
 16 17  1  0  0  0
 16 36  1  0  0  0
 17 18  2  0  0  0
 17 37  1  0  0  0
 18 19  1  0  0  0
 19 20  2  0  0  0
 20 21  1  0  0  0
 21 38  1  0  0  0
 21 39  1  0  0  0
 21 40  1  0  0  0
 22 23  1  0  0  0
 22 41  1  0  0  0
 22 42  1  0  0  0
 23 28  1  0  0  0
 23 24  1  0  0  0
 24 25  1  0  0  0
 24 43  1  0  0  0
 24 44  1  0  0  0
 25 26  1  0  0  0
 25 45  1  0  0  0
 25 46  1  0  0  0
 26 27  1  0  0  0
 27 28  1  0  0  0
 27 47  1  0  0  0
 27 48  1  0  0  0
 28 49  1  0  0  0
 28 50  1  0  0  0
M  END
> <s_m_source_file>
ligprep_pde2.smi

> <i_m_source_file_index>
4

> <i_lp_mmshare_version>
53161

> <i_f3d_flags>
0

> <s_epik_input>
bjFbY0hdW2NIXVtjSF1jKGMxW0NIM10pLWMobm4yKW4oYzIzKWM0YyhuYzNbQ0gzXSlbY0hdW2NIXWMoW2NIXTQpW0NIMl1ONVtDSDJdW0NIMl1PW0NIMl1bQ0gyXTU=

> <s_epik_cmdline>
J2VwaWtfcHl0aG9uJywgJy1waHQnLCAnMC4wJywgJy1waCcsICc3LjQnLCAnLXRuJywgJzgnLCAnLW1hJywgJzUwMCcsICctaW1hZScsICc8aW5maWxlLm1hZT4nLCAnLW9tYWUnLCAnPG91dGZpbGUubWFlPic=

> <r_epik_Ionization_Penalty>
0.1309

> <r_epik_Ionization_Penalty_Charging>
0

> <r_epik_Ionization_Penalty_Neutral>
0.1309

> <r_epik_State_Penalty>
0.1195

> <r_epik_Charging_Adjusted_Penalty>
0.119465

> <i_epik_Tot_Q>
0

> <i_epik_Tot_abs_Q>
0

> <s_lp_Force_Field>
S-OPLS

> <r_lp_Energy>
47.944

> <b_lp_Chiralities_Consistent>
1

> <s_lp_Variant>
lig_48168913-1

> <s_i_glide_gridfile>
glide-grid_6C7E-PDE2

> <i_i_glide_lignum>
4

> <i_i_glide_rotatable_bonds>
3

> <r_i_docking_score>
-7.55908

> <r_i_glide_ligand_efficiency>
-0.269967

> <r_i_glide_ligand_efficiency_sa>
-0.81978

> <r_i_glide_ligand_efficiency_ln>
-1.74486

> <r_i_glide_gscore>
-7.67858

> <r_i_glide_lipo>
-3.41644

> <r_i_glide_hbond>
-0.382946

> <r_i_glide_metal>
-0

> <r_i_glide_rewards>
-1.48112

> <r_i_glide_evdw>
-36.6608

> <r_i_glide_ecoul>
-6.16294

> <r_i_glide_erotb>
0.413738

> <r_i_glide_esite>
-0.0543286

> <r_i_glide_emodel>
-60.0395

> <r_i_glide_energy>
-42.8237

> <r_i_glide_einternal>
1.16168

> <i_i_glide_confnum>
46

> <i_i_glide_posenum>
59

> <r_i_glide_eff_state_penalty>
0.1195

> <r_i_glide_rmsd>
0.110364

> <s_glide_core_constrain_type>
snapped_core_restrain
$$$$