lig_5k
                    3D
 Schrodinger Suite 2021-1.
 37 39  0  0  1  0            999 V2000
  -39.0066  -11.3672    4.7216 H   0  0  0  0  0  0
  -38.9450  -11.6888    5.6084 O   0  0  0  0  0  0
  -38.6782  -10.6034    6.4568 C   0  0  0  0  0  0
  -38.6763  -10.9493    7.9248 C   0  0  0  0  0  0
  -38.1704  -10.0274    8.8617 C   0  0  0  0  0  0
  -37.7584   -9.0799    8.5436 H   0  0  0  0  0  0
  -38.2163  -10.3208   10.2318 C   0  0  0  0  0  0
  -37.8225   -9.5963   10.9300 H   0  0  0  0  0  0
  -38.7878  -11.5345   10.6700 C   0  0  0  0  0  0
  -38.8560  -11.8426   12.1151 C   0  0  0  0  0  0
  -39.5607  -12.8564   12.5195 N   0  0  0  0  0  0
  -39.6103  -13.1820   13.8754 C   0  0  0  0  0  0
  -40.4174  -14.2609   14.2782 C   0  0  0  0  0  0
  -41.0985  -14.9910   13.3632 F   0  0  0  0  0  0
  -40.5385  -14.5675   15.6381 C   0  0  0  0  0  0
  -41.1922  -15.3652   15.9636 H   0  0  0  0  0  0
  -39.8477  -13.7968   16.5873 C   0  0  0  0  0  0
  -40.0990  -14.0557   17.8869 F   0  0  0  0  0  0
  -39.0060  -12.7374   16.2007 C   0  0  0  0  0  0
  -38.4914  -12.1493   16.9475 H   0  0  0  0  0  0
  -38.8892  -12.4273   14.8330 C   0  0  0  0  0  0
  -38.0331  -11.2987   14.3344 C   0  0  0  0  0  0
  -37.2836  -10.6415   15.0503 O   0  0  0  0  0  0
  -38.1292  -11.0647   13.0215 N   0  0  0  0  0  0
  -37.5317  -10.3351   12.6540 H   0  0  0  0  0  0
  -39.3044  -12.4520    9.7298 C   0  0  0  0  0  0
  -39.7531  -13.3856   10.0369 H   0  0  0  0  0  0
  -39.2512  -12.1577    8.3653 C   0  0  0  0  0  0
  -39.6764  -12.8591    7.6620 H   0  0  0  0  0  0
  -37.3418  -10.0625    5.9700 C   0  0  0  0  0  0
  -37.0983   -9.0927    6.4047 H   0  0  0  0  0  0
  -37.3265   -9.9427    4.8876 H   0  0  0  0  0  0
  -36.5447  -10.7620    6.2153 H   0  0  0  0  0  0
  -39.8074   -9.6307    6.2278 C   0  0  0  0  0  0
  -39.6872   -8.6985    6.7826 H   0  0  0  0  0  0
  -39.7980   -9.4047    5.1704 H   0  0  0  0  0  0
  -40.7787  -10.0554    6.4827 H   0  0  0  0  0  0
  1  2  1  0  0  0
  2  3  1  0  0  0
  3  4  1  0  0  0
  3 30  1  0  0  0
  3 34  1  0  0  0
  4 28  1  0  0  0
  4  5  2  0  0  0
  5  6  1  0  0  0
  5  7  1  0  0  0
  7  8  1  0  0  0
  7  9  2  0  0  0
  9 10  1  0  0  0
  9 26  1  0  0  0
 10 24  1  0  0  0
 10 11  2  0  0  0
 11 12  1  0  0  0
 12 21  2  0  0  0
 12 13  1  0  0  0
 13 14  1  0  0  0
 13 15  2  0  0  0
 15 16  1  0  0  0
 15 17  1  0  0  0
 17 18  1  0  0  0
 17 19  2  0  0  0
 19 20  1  0  0  0
 19 21  1  0  0  0
 21 22  1  0  0  0
 22 23  2  0  0  0
 22 24  1  0  0  0
 24 25  1  0  0  0
 26 27  1  0  0  0
 26 28  2  0  0  0
 28 29  1  0  0  0
 30 31  1  0  0  0
 30 32  1  0  0  0
 30 33  1  0  0  0
 34 35  1  0  0  0
 34 36  1  0  0  0
 34 37  1  0  0  0
M  END
> <s_m_source_file>
ligprep_tnks2.smi

> <i_m_source_file_index>
15

> <i_lp_mmshare_version>
53161

> <i_f3d_flags>
0

> <s_epik_input>
W09IXUMoW0NIM10pKFtDSDNdKWMxW2NIXVtjSF1jKFtjSF1bY0hdMSktYyhuMilbbkhdYyg9TyljKGMyMylbY0hdYyhGKVtjSF1jM0Y=

> <s_epik_cmdline>
J2VwaWtfcHl0aG9uJywgJy1waHQnLCAnMC4wJywgJy1waCcsICc3LjQnLCAnLXRuJywgJzgnLCAnLW1hJywgJzUwMCcsICctaW1hZScsICc8aW5maWxlLm1hZT4nLCAnLW9tYWUnLCAnPG91dGZpbGUubWFlPic=

> <r_lp_tautomer_probability>
1

> <r_epik_Ionization_Penalty>
0.189

> <r_epik_Ionization_Penalty_Charging>
0.189

> <r_epik_Ionization_Penalty_Neutral>
0

> <r_epik_State_Penalty>
-0

> <r_epik_Charging_Adjusted_Penalty>
0.189017

> <i_epik_Tot_Q>
0

> <i_epik_Tot_abs_Q>
0

> <s_lp_Force_Field>
S-OPLS

> <r_lp_Energy>
25.4879

> <b_lp_Chiralities_Consistent>
1

> <s_lp_Variant>
lig_5k-1

> <s_i_glide_gridfile>
glide-grid_4UI5-TNKS2

> <i_i_glide_lignum>
15

> <i_i_glide_rotatable_bonds>
3

> <r_i_docking_score>
-11.9022

> <r_i_glide_ligand_efficiency>
-0.517486

> <r_i_glide_ligand_efficiency_sa>
-1.47166

> <r_i_glide_ligand_efficiency_ln>
-2.87806

> <r_i_glide_gscore>
-11.9022

> <r_i_glide_lipo>
-4.39231

> <r_i_glide_hbond>
-0.841777

> <r_i_glide_metal>
-0

> <r_i_glide_rewards>
-3.43366

> <r_i_glide_evdw>
-42.4171

> <r_i_glide_ecoul>
-10.012

> <r_i_glide_erotb>
0.390728

> <r_i_glide_esite>
-0.00251209

> <r_i_glide_emodel>
-76.9389

> <r_i_glide_energy>
-52.429

> <r_i_glide_einternal>
0.295379

> <i_i_glide_confnum>
4

> <i_i_glide_posenum>
9

> <r_i_glide_eff_state_penalty>
-0

> <r_i_glide_rmsd>
0.0996495

> <s_glide_core_constrain_type>
snapped_core_restrain
$$$$