lig_23468
                    3D
 Schrodinger Suite 2021-1.
 37 38  0  0  1  0            999 V2000
   44.4557    8.8952   -0.1243 H   0  0  0  0  0  0
   45.2235    9.5136    0.3160 C   0  0  0  0  0  0
   44.9701   10.8719    0.5935 C   0  0  0  0  0  0
   45.9706   11.6854    1.1726 C   0  0  0  0  0  0
   47.2282   11.1039    1.4476 C   0  0  0  0  0  0
   47.4754    9.7324    1.2373 C   0  0  0  0  0  0
   46.4650    8.9433    0.6483 C   0  0  0  0  0  0
   46.6201    7.8965    0.4389 H   0  0  0  0  0  0
   48.7567    9.2346    1.6167 N   0  0  0  0  0  0
   49.4545    9.9372    1.8103 H   0  0  0  0  0  0
   49.1157    7.9632    1.8871 C   0  0  0  0  0  0
   48.3578    6.9992    1.8365 O   0  0  0  0  0  0
   50.5805    7.7482    2.2873 C   0  0  0  0  0  0
   51.0748    8.7017    2.4887 H   0  0  0  0  0  0
   51.1015    7.2995    1.4401 H   0  0  0  0  0  0
   50.7264    6.8316    3.5156 C   0  0  0  0  0  0
   51.7750    6.6932    3.7760 H   0  0  0  0  0  0
   50.3004    5.8448    3.3315 H   0  0  0  0  0  0
   50.2287    7.2571    4.3879 H   0  0  0  0  0  0
   48.0227   11.7093    1.8547 H   0  0  0  0  0  0
   45.7039   13.0929    1.4999 C   0  0  0  0  0  0
   46.1829   13.8708    2.5273 C   0  0  0  0  0  0
   45.7046   15.2011    2.5498 C   0  0  0  0  0  0
   44.8237   15.4639    1.5356 C   0  0  0  0  0  0
   44.5923   14.0427    0.5302 S   0  0  0  0  0  0
   44.0870   16.6995    1.2062 C   0  0  0  0  0  0
   43.5589   16.8213    0.0819 O   0  0  0  0  0  0
   44.0261   17.6117    2.0649 O   0  5  0  0  0  0
   46.0232   16.0854    3.5126 O   0  0  0  0  0  0
   47.2501   16.7706    3.3453 C   0  0  0  0  0  0
   48.0440   16.0950    3.0264 H   0  0  0  0  0  0
   47.1392   17.5415    2.5857 H   0  0  0  0  0  0
   47.6324   17.4061    4.6828 C   0  0  0  0  0  0
   48.7326   18.0033    4.7154 O   0  0  0  0  0  0
   46.8356   17.2863    5.6509 O   0  5  0  0  0  0
   47.3368   13.2641    3.9138 Br  0  0  0  0  0  0
   43.9956   11.2778    0.3660 H   0  0  0  0  0  0
  1  2  1  0  0  0
  2  7  1  0  0  0
  2  3  2  0  0  0
  3  4  1  0  0  0
  3 37  1  0  0  0
  4  5  2  0  0  0
  4 21  1  0  0  0
  5  6  1  0  0  0
  5 20  1  0  0  0
  6  7  2  0  0  0
  6  9  1  0  0  0
  7  8  1  0  0  0
  9 10  1  0  0  0
  9 11  1  0  0  0
 11 12  2  0  0  0
 11 13  1  0  0  0
 13 14  1  0  0  0
 13 15  1  0  0  0
 13 16  1  0  0  0
 16 17  1  0  0  0
 16 18  1  0  0  0
 16 19  1  0  0  0
 21 25  1  0  0  0
 21 22  2  0  0  0
 22 23  1  0  0  0
 22 36  1  0  0  0
 23 24  2  0  0  0
 23 29  1  0  0  0
 24 25  1  0  0  0
 24 26  1  0  0  0
 26 27  2  0  0  0
 26 28  1  0  0  0
 29 30  1  0  0  0
 30 31  1  0  0  0
 30 32  1  0  0  0
 30 33  1  0  0  0
 33 34  2  0  0  0
 33 35  1  0  0  0
M  CHG  2  28  -1  35  -1
M  END
> <s_m_source_file>
ligprep_ptp1b.smi

> <i_m_source_file_index>
7

> <i_lp_mmshare_version>
53161

> <i_f3d_flags>
0

> <s_epik_input>
W0NIM11bQ0gyXUMoPU8pW05IXWMoW2NIXTEpW2NIXVtjSF1bY0hdYzEtYzJjKEJyKWMoYyhzMilDKD1PKVtPSF0pT1tDSDJdQyg9TylbT0hd

> <s_epik_cmdline>
J2VwaWtfcHl0aG9uJywgJy1waHQnLCAnMC4wJywgJy1waCcsICc3LjQnLCAnLXRuJywgJzgnLCAnLW1hJywgJzUwMCcsICctaW1hZScsICc8aW5maWxlLm1hZT4nLCAnLW9tYWUnLCAnPG91dGZpbGUubWFlPic=

> <r_lp_tautomer_probability>
1

> <r_epik_Ionization_Penalty>
0.0001

> <r_epik_Ionization_Penalty_Charging>
0.0001

> <r_epik_Ionization_Penalty_Neutral>
0

> <r_epik_State_Penalty>
-0

> <r_epik_Charging_Adjusted_Penalty>
9.21585e-05

> <i_epik_Tot_Q>
-2

> <i_epik_Tot_abs_Q>
2

> <s_lp_Force_Field>
S-OPLS

> <r_lp_Energy>
45.1969

> <b_lp_Chiralities_Consistent>
1

> <s_lp_Variant>
lig_23468-1

> <s_i_glide_gridfile>
glide-grid_2QBS-PTP1B

> <i_i_glide_lignum>
7

> <i_i_glide_rotatable_bonds>
8

> <r_i_docking_score>
-8.30392

> <r_i_glide_ligand_efficiency>
-0.332157

> <r_i_glide_ligand_efficiency_sa>
-0.971233

> <r_i_glide_ligand_efficiency_ln>
-1.96828

> <r_i_glide_gscore>
-8.30392

> <r_i_glide_lipo>
-1.36115

> <r_i_glide_hbond>
-1.23993

> <r_i_glide_metal>
-0

> <r_i_glide_rewards>
-0.570878

> <r_i_glide_evdw>
-38.2508

> <r_i_glide_ecoul>
-29.0067

> <r_i_glide_erotb>
0.873814

> <r_i_glide_esite>
-0.0932405

> <r_i_glide_emodel>
-128.731

> <r_i_glide_energy>
-67.2575

> <r_i_glide_einternal>
0.110621

> <i_i_glide_confnum>
1

> <i_i_glide_posenum>
1

> <r_i_glide_eff_state_penalty>
-0

> <r_i_glide_rmsd>
0.0881692

> <s_glide_core_constrain_type>
snapped_core_restrain
$$$$