lig_CHEMBL3265023
                    3D
 Schrodinger Suite 2021-1.
 50 54  0  0  1  0            999 V2000
    4.7018    4.3941    8.9324 H   0  0  0  0  0  0
    3.6761    4.3375    9.2111 C   0  0  0  0  0  0
    2.8146    5.1261    8.6354 N   0  0  0  0  0  0
    1.6094    4.7651    9.1142 N   0  0  0  0  0  0
    0.4053    5.4000    8.6117 C   0  0  0  0  0  0
   -0.2013    5.7544    9.4399 H   0  0  0  0  0  0
    0.6525    6.2637    7.9864 H   0  0  0  0  0  0
   -0.1677    4.6792    8.0226 H   0  0  0  0  0  0
    1.7135    3.8284   10.1136 C   0  0  0  0  0  0
    0.7944    3.2887   11.0187 C   0  0  0  0  0  0
   -0.2493    3.5724   10.9891 H   0  0  0  0  0  0
    1.2572    2.4533   12.0489 C   0  0  0  0  0  0
    0.5602    2.0870   12.7884 H   0  0  0  0  0  0
    2.6202    2.0810   12.1301 C   0  0  0  0  0  0
    3.1122    1.2040   13.2007 C   0  0  0  0  0  0
    4.3991    1.3064   13.6797 C   0  0  0  0  0  0
    5.1454    2.0125   13.3329 H   0  0  0  0  0  0
    4.7376    0.5036   14.7122 N   0  0  0  0  0  0
    3.8281   -0.4200   15.2721 C   0  0  0  0  0  0
    4.3976   -1.0542   16.2914 N   0  0  0  0  0  0
    5.6629   -0.4979   16.4277 C   0  0  0  0  0  0
    6.3136   -0.8057   17.2321 H   0  0  0  0  0  0
    5.9087    0.4111   15.4403 C   0  0  0  0  0  0
    6.7645    1.0145   15.1885 H   0  0  0  0  0  0
    2.5351   -0.4701   14.6901 C   0  0  0  0  0  0
    1.5980   -1.3696   15.2340 N   0  0  0  0  0  0
    1.9956   -1.9403   15.9671 H   0  0  0  0  0  0
    0.2249   -1.5758   15.0228 C   0  0  0  0  0  0
   -0.3776   -2.6173   15.7537 C   0  0  0  0  0  0
    0.2178   -3.2184   16.4274 H   0  0  0  0  0  0
   -1.7518   -2.8819   15.6346 C   0  0  0  0  0  0
   -2.1865   -3.6808   16.2173 H   0  0  0  0  0  0
   -2.5482   -2.1048   14.7685 C   0  0  0  0  0  0
   -3.8922   -2.3747   14.6795 O   0  0  0  0  0  0
   -4.2318   -3.1339   13.5328 C   0  0  0  0  0  0
   -5.3090   -3.3054   13.5123 H   0  0  0  0  0  0
   -3.9577   -2.6190   12.6102 H   0  0  0  0  0  0
   -3.7385   -4.1069   13.5481 H   0  0  0  0  0  0
   -1.9787   -1.0517   14.0265 C   0  0  0  0  0  0
   -2.8292   -0.3155   13.2210 O   0  0  0  0  0  0
   -2.2542    0.6628   12.3639 C   0  0  0  0  0  0
   -3.0322    1.0893   11.7300 H   0  0  0  0  0  0
   -1.8119    1.4810   12.9358 H   0  0  0  0  0  0
   -1.5007    0.2269   11.7057 H   0  0  0  0  0  0
   -0.5910   -0.8000   14.1546 C   0  0  0  0  0  0
   -0.1547    0.0076   13.5960 H   0  0  0  0  0  0
    2.2069    0.2997   13.6970 N   0  0  0  0  0  0
    3.5295    2.6116   11.1887 C   0  0  0  0  0  0
    4.5826    2.3738   11.2351 H   0  0  0  0  0  0
    3.0925    3.5227   10.2078 C   0  0  0  0  0  0
  1  2  1  0  0  0
  2 50  1  0  0  0
  2  3  2  0  0  0
  3  4  1  0  0  0
  4  5  1  0  0  0
  4  9  1  0  0  0
  5  6  1  0  0  0
  5  7  1  0  0  0
  5  8  1  0  0  0
  9 50  2  0  0  0
  9 10  1  0  0  0
 10 11  1  0  0  0
 10 12  2  0  0  0
 12 13  1  0  0  0
 12 14  1  0  0  0
 14 15  1  0  0  0
 14 48  2  0  0  0
 15 47  1  0  0  0
 15 16  2  0  0  0
 16 17  1  0  0  0
 16 18  1  0  0  0
 18 23  1  0  0  0
 18 19  1  0  0  0
 19 20  2  0  0  0
 19 25  1  0  0  0
 20 21  1  0  0  0
 21 22  1  0  0  0
 21 23  2  0  0  0
 23 24  1  0  0  0
 25 26  1  0  0  0
 25 47  2  0  0  0
 26 27  1  0  0  0
 26 28  1  0  0  0
 28 45  1  0  0  0
 28 29  2  0  0  0
 29 30  1  0  0  0
 29 31  1  0  0  0
 31 32  1  0  0  0
 31 33  2  0  0  0
 33 34  1  0  0  0
 33 39  1  0  0  0
 34 35  1  0  0  0
 35 36  1  0  0  0
 35 37  1  0  0  0
 35 38  1  0  0  0
 39 40  1  0  0  0
 39 45  2  0  0  0
 40 41  1  0  0  0
 41 42  1  0  0  0
 41 43  1  0  0  0
 41 44  1  0  0  0
 45 46  1  0  0  0
 48 49  1  0  0  0
 48 50  1  0  0  0
M  END
> <s_m_source_file>
ligprep_syk.smi

> <i_m_source_file_index>
30

> <i_lp_mmshare_version>
53161

> <i_f3d_flags>
0

> <s_epik_input>
W0NIM11uMW5bY0hdYyhjMTIpW2NIXWMoW2NIXVtjSF0yKS1jKFtjSF0zKW5jKGMobjM0KW5bY0hdW2NIXTQpW05IXWM1W2NIXVtjSF1jKE9bQ0gzXSljKFtjSF01KU9bQ0gzXQ==

> <s_epik_cmdline>
J2VwaWtfcHl0aG9uJywgJy1waHQnLCAnMC4wJywgJy1waCcsICc3LjQnLCAnLXRuJywgJzgnLCAnLW1hJywgJzUwMCcsICctaW1hZScsICc8aW5maWxlLm1hZT4nLCAnLW9tYWUnLCAnPG91dGZpbGUubWFlPic=

> <r_lp_tautomer_probability>
1

> <r_epik_Ionization_Penalty>
0.0009

> <r_epik_Ionization_Penalty_Charging>
0.0009

> <r_epik_Ionization_Penalty_Neutral>
0

> <r_epik_State_Penalty>
-0

> <r_epik_Charging_Adjusted_Penalty>
0.000851558

> <i_epik_Tot_Q>
0

> <i_epik_Tot_abs_Q>
0

> <s_lp_Force_Field>
S-OPLS

> <r_lp_Energy>
44.2691

> <b_lp_Chiralities_Consistent>
1

> <s_lp_Variant>
lig_CHEMBL3265023-1

> <s_i_glide_gridfile>
glide-grid_4PV0-SYK

> <i_i_glide_lignum>
30

> <i_i_glide_rotatable_bonds>
5

> <r_i_docking_score>
-8.00174

> <r_i_glide_ligand_efficiency>
-0.266725

> <r_i_glide_ligand_efficiency_sa>
-0.828775

> <r_i_glide_ligand_efficiency_ln>
-1.81808

> <r_i_glide_gscore>
-8.00174

> <r_i_glide_lipo>
-2.94277

> <r_i_glide_hbond>
-0.342953

> <r_i_glide_metal>
-0

> <r_i_glide_rewards>
-2.26763

> <r_i_glide_evdw>
-44.2918

> <r_i_glide_ecoul>
-5.63403

> <r_i_glide_erotb>
0.611308

> <r_i_glide_esite>
0

> <r_i_glide_emodel>
-69.8108

> <r_i_glide_energy>
-49.9258

> <r_i_glide_einternal>
1.56101e-07

> <i_i_glide_confnum>
1

> <i_i_glide_posenum>
1

> <r_i_glide_eff_state_penalty>
-0

> <r_i_glide_rmsd>
0.0788234

> <s_glide_core_constrain_type>
snapped_core_restrain
$$$$