lig_26
                    3D
 Schrodinger Suite 2021-1.
 49 52  0  0  1  0            999 V2000
   11.3062   46.8791   52.2067 H   0  0  0  0  0  0
   10.4936   46.3192   51.7846 C   0  0  0  0  0  0
    9.2395   46.5289   52.1072 N   0  0  0  0  0  0
    8.5703   45.6670   51.2515 C   0  0  0  0  0  0
    7.2113   45.3532   51.0505 C   0  0  0  0  0  0
    6.2081   45.8875   51.8250 O   0  0  0  0  0  0
    4.8759   45.5514   51.4611 C   0  0  0  0  0  0
    4.7453   44.5006   51.1966 H   0  0  0  0  0  0
    4.6354   46.1348   50.5665 H   0  0  0  0  0  0
    3.8868   45.8453   52.5957 C   0  0  0  0  0  0
    4.0871   46.8343   53.0116 H   0  0  0  0  0  0
    2.4577   45.8624   52.0295 C   0  0  0  0  0  0
    2.2496   44.9232   51.5125 H   0  0  0  0  0  0
    2.3555   46.6568   51.2847 H   0  0  0  0  0  0
    1.3994   46.0716   53.1299 C   0  0  0  0  0  0
    0.3997   46.0467   52.6918 H   0  0  0  0  0  0
    1.5271   47.0640   53.5622 H   0  0  0  0  0  0
    1.5272   45.0092   54.2259 C   0  0  0  0  0  0
    1.2939   44.0263   53.8187 H   0  0  0  0  0  0
    0.7992   45.2036   55.0145 H   0  0  0  0  0  0
    2.9443   44.9997   54.8189 C   0  0  0  0  0  0
    3.0275   44.2082   55.5701 H   0  0  0  0  0  0
    3.1349   45.9390   55.3423 H   0  0  0  0  0  0
    4.0084   44.7970   53.7232 C   0  0  0  0  0  0
    5.0025   44.8321   54.1688 H   0  0  0  0  0  0
    3.8989   43.7918   53.3149 H   0  0  0  0  0  0
    6.9161   44.4441   50.0951 N   0  0  0  0  0  0
    7.8843   43.8389   49.4079 C   0  0  0  0  0  0
    7.4810   42.8129   48.6076 N   0  0  0  0  0  0
    8.1826   42.4494   47.9726 H   0  0  0  0  0  0
    6.3141   42.0488   48.5983 C   0  0  0  0  0  0
    5.8171   41.6093   47.3666 C   0  0  0  0  0  0
    6.3272   41.8417   46.4449 H   0  0  0  0  0  0
    4.6347   40.8631   47.3159 C   0  0  0  0  0  0
    4.3144   40.5491   46.3370 H   0  0  0  0  0  0
    3.9221   40.5527   48.5131 C   0  0  0  0  0  0
    2.7513   39.8176   48.5089 O   0  0  0  0  0  0
    2.4054   39.1636   47.2901 C   0  0  0  0  0  0
    1.5089   38.5666   47.4059 H   0  0  0  0  0  0
    2.1858   39.8869   46.5020 H   0  0  0  0  0  0
    3.1993   38.4894   46.9692 H   0  0  0  0  0  0
    4.4359   40.9853   49.7478 C   0  0  0  0  0  0
    3.9252   40.7290   50.6686 H   0  0  0  0  0  0
    5.6442   41.7067   49.7949 C   0  0  0  0  0  0
    6.0452   42.0107   50.7528 H   0  0  0  0  0  0
    9.1981   44.0328   49.4523 N   0  0  0  0  0  0
    9.4824   44.9504   50.4199 C   0  0  0  0  0  0
   10.7096   45.4139   50.8203 N   0  0  0  0  0  0
   11.6325   45.2008   50.4250 H   0  0  0  0  0  0
  1  2  1  0  0  0
  2 48  1  0  0  0
  2  3  2  0  0  0
  3  4  1  0  0  0
  4 47  1  0  0  0
  4  5  2  0  0  0
  5  6  1  0  0  0
  5 27  1  0  0  0
  6  7  1  0  0  0
  7  8  1  0  0  0
  7  9  1  0  0  0
  7 10  1  0  0  0
 10 24  1  0  0  0
 10 11  1  0  0  0
 10 12  1  0  0  0
 12 13  1  0  0  0
 12 14  1  0  0  0
 12 15  1  0  0  0
 15 16  1  0  0  0
 15 17  1  0  0  0
 15 18  1  0  0  0
 18 19  1  0  0  0
 18 20  1  0  0  0
 18 21  1  0  0  0
 21 22  1  0  0  0
 21 23  1  0  0  0
 21 24  1  0  0  0
 24 25  1  0  0  0
 24 26  1  0  0  0
 27 28  2  0  0  0
 28 29  1  0  0  0
 28 46  1  0  0  0
 29 30  1  0  0  0
 29 31  1  0  0  0
 31 44  1  0  0  0
 31 32  2  0  0  0
 32 33  1  0  0  0
 32 34  1  0  0  0
 34 35  1  0  0  0
 34 36  2  0  0  0
 36 37  1  0  0  0
 36 42  1  0  0  0
 37 38  1  0  0  0
 38 39  1  0  0  0
 38 40  1  0  0  0
 38 41  1  0  0  0
 42 43  1  0  0  0
 42 44  2  0  0  0
 44 45  1  0  0  0
 46 47  2  0  0  0
 47 48  1  0  0  0
 48 49  1  0  0  0
M  END
> <s_m_source_file>
ligprep_cdk2.smi

> <i_m_source_file_index>
11

> <i_lp_mmshare_version>
53161

> <i_f3d_flags>
0

> <s_epik_input>
W0NIM11PYyhbY0hdW2NIXTEpW2NIXVtjSF1jMVtOSF1jKG5jKGMyMylbbkhdW2NIXW4yKW5jM09bQ0gyXVtDSF00W0NIMl1bQ0gyXVtDSDJdW0NIMl1bQ0gyXTQ=

> <s_epik_cmdline>
J2VwaWtfcHl0aG9uJywgJy1waHQnLCAnMC4wJywgJy1waCcsICc3LjQnLCAnLXRuJywgJzgnLCAnLW1hJywgJzUwMCcsICctaW1hZScsICc8aW5maWxlLm1hZT4nLCAnLW9tYWUnLCAnPG91dGZpbGUubWFlPic=

> <r_lp_tautomer_probability>
1

> <r_epik_Ionization_Penalty>
0.0272

> <r_epik_Ionization_Penalty_Charging>
0

> <r_epik_Ionization_Penalty_Neutral>
0.0272

> <r_epik_State_Penalty>
-0

> <r_epik_Charging_Adjusted_Penalty>
0

> <i_epik_Tot_Q>
0

> <i_epik_Tot_abs_Q>
0

> <s_lp_Force_Field>
S-OPLS

> <r_lp_Energy>
29.9088

> <b_lp_Chiralities_Consistent>
1

> <s_lp_Variant>
lig_26-1

> <s_i_glide_gridfile>
glide-grid_1H1Q-CDK2

> <i_i_glide_lignum>
11

> <i_i_glide_rotatable_bonds>
6

> <r_i_docking_score>
-10.5157

> <r_i_glide_ligand_efficiency>
-0.404451

> <r_i_glide_ligand_efficiency_sa>
-1.19818

> <r_i_glide_ligand_efficiency_ln>
-2.46958

> <r_i_glide_gscore>
-10.5157

> <r_i_glide_lipo>
-2.38691

> <r_i_glide_hbond>
-1.31955

> <r_i_glide_metal>
-0

> <r_i_glide_rewards>
-3.24902

> <r_i_glide_evdw>
-38.4739

> <r_i_glide_ecoul>
-15.1913

> <r_i_glide_erotb>
0.642137

> <r_i_glide_esite>
0

> <r_i_glide_emodel>
-81.0083

> <r_i_glide_energy>
-53.6652

> <r_i_glide_einternal>
3.07301

> <i_i_glide_confnum>
9

> <i_i_glide_posenum>
3

> <r_i_glide_eff_state_penalty>
-0

> <r_i_glide_rmsd>
0.102201

> <s_glide_core_constrain_type>
snapped_core_restrain
$$$$