lig_CAT-4n
                    3D
 Schrodinger Suite 2021-1.
 45 48  0  0  1  0            999 V2000
   27.1859    9.0394   21.3930 H   0  0  0  0  0  0
   27.7723    9.8957   21.1225 C   0  0  0  0  0  0
   29.0271    9.9595   21.6175 N   0  0  0  0  0  0
   29.7828   11.0502   21.3392 C   0  0  0  0  0  0
   30.7574   11.0868   21.8125 H   0  0  0  0  0  0
   29.3253   12.1077   20.5345 C   0  0  0  0  0  0
   30.0343   13.3675   20.3690 C   0  0  0  0  0  0
   30.5639   14.3898   20.2347 N   0  0  0  0  0  0
   28.0238   12.0222   20.0253 C   0  0  0  0  0  0
   27.5790   12.8500   19.4712 H   0  0  0  0  0  0
   27.2017   10.9154   20.3131 C   0  0  0  0  0  0
   25.8014   10.9307   19.8620 C   0  0  0  0  0  0
   24.7554   10.8005   20.7952 C   0  0  0  0  0  0
   24.9982   10.6105   21.8210 H   0  0  0  0  0  0
   23.3980   10.9006   20.4221 C   0  0  0  0  0  0
   22.2865   10.7963   21.4820 C   0  0  2  0  0  0
   20.8543   10.6851   20.9248 C   0  0  0  0  0  0
   20.0590   11.8291   20.6627 C   0  0  0  0  0  0
   20.4397   12.8260   20.8114 H   0  0  0  0  0  0
   18.7258   11.6935   20.2126 C   0  0  0  0  0  0
   18.1191   12.5630   20.0388 H   0  0  0  0  0  0
   18.1820   10.4193   19.9899 C   0  0  0  0  0  0
   17.1781   10.3114   19.6630 H   0  0  0  0  0  0
   18.9844    9.2820   20.1849 C   0  0  0  0  0  0
   18.5835    8.2918   20.0098 H   0  0  0  0  0  0
   20.3108    9.4124   20.6461 C   0  0  0  0  0  0
   20.8969    8.5301   20.7853 H   0  0  0  0  0  0
   22.4284   11.9395   22.5048 C   0  0  0  0  0  0
   22.4353   13.1394   22.2407 O   0  0  0  0  0  0
   22.5737   11.4154   23.7298 N   0  0  0  0  0  0
   22.7624   12.1348   24.9877 C   0  0  0  0  0  0
   22.0875   11.7671   25.7628 H   0  0  0  0  0  0
   23.7881   12.0064   25.3404 H   0  0  0  0  0  0
   22.5930   13.2033   24.8645 H   0  0  0  0  0  0
   22.6521   10.0557   23.5784 C   0  0  0  0  0  0
   22.8690    9.2663   24.7009 N   0  0  0  0  0  0
   22.9982    8.2643   24.6399 H   0  0  0  0  0  0
   22.5472    9.6556   22.3749 N   0  0  0  0  0  0
   23.1018   11.1200   19.0589 C   0  0  0  0  0  0
   22.0852   11.2161   18.7129 H   0  0  0  0  0  0
   24.1292   11.2355   18.1082 C   0  0  0  0  0  0
   23.8980   11.4013   17.0625 H   0  0  0  0  0  0
   25.4763   11.1491   18.5234 C   0  0  0  0  0  0
   26.2566   11.2769   17.7862 H   0  0  0  0  0  0
   22.9878    9.6155   25.6477 H   0  0  0  0  0  0
  1  2  1  0  0  0
  2 11  1  0  0  0
  2  3  2  0  0  0
  3  4  1  0  0  0
  4  5  1  0  0  0
  4  6  2  0  0  0
  6  7  1  0  0  0
  6  9  1  0  0  0
  7  8  3  0  0  0
  9 10  1  0  0  0
  9 11  2  0  0  0
 11 12  1  0  0  0
 12 43  1  0  0  0
 12 13  2  0  0  0
 13 14  1  0  0  0
 13 15  1  0  0  0
 15 39  2  0  0  0
 15 16  1  0  0  0
 16 38  1  0  0  0
 16 28  1  0  0  0
 16 17  1  0  0  0
 17 26  1  0  0  0
 17 18  2  0  0  0
 18 19  1  0  0  0
 18 20  1  0  0  0
 20 21  1  0  0  0
 20 22  2  0  0  0
 22 23  1  0  0  0
 22 24  1  0  0  0
 24 25  1  0  0  0
 24 26  2  0  0  0
 26 27  1  0  0  0
 28 29  2  0  0  0
 28 30  1  0  0  0
 30 31  1  0  0  0
 30 35  1  0  0  0
 31 32  1  0  0  0
 31 33  1  0  0  0
 31 34  1  0  0  0
 35 36  1  0  0  0
 35 38  2  0  0  0
 36 37  1  0  0  0
 36 45  1  0  0  0
 39 40  1  0  0  0
 39 41  1  0  0  0
 41 42  1  0  0  0
 41 43  2  0  0  0
 43 44  1  0  0  0
M  END
> <s_m_source_file>
ligprep_bace.smi

> <i_m_source_file_index>
34

> <i_lp_mmshare_version>
53161

> <i_f3d_flags>
0

> <s_epik_input>
TiNDYzFbY0hdbltjSF1jKFtjSF0xKS1jMltjSF1jKFtjSF1bY0hdW2NIXTIpW0NAQF0zKEMoPU8pTihbQ0gzXSlDKD1OMylbTkgyXSljNFtjSF1bY0hdW2NIXVtjSF1bY0hdNA==

> <s_epik_cmdline>
J2VwaWtfcHl0aG9uJywgJy1waHQnLCAnMC4wJywgJy1waCcsICc3LjQnLCAnLXRuJywgJzgnLCAnLW1hJywgJzUwMCcsICctaW1hZScsICc8aW5maWxlLm1hZT4nLCAnLW9tYWUnLCAnPG91dGZpbGUubWFlPic=

> <r_lp_tautomer_probability>
1

> <r_epik_Ionization_Penalty>
0.5023

> <r_epik_Ionization_Penalty_Charging>
0

> <r_epik_Ionization_Penalty_Neutral>
0.5023

> <r_epik_State_Penalty>
-0

> <r_epik_Charging_Adjusted_Penalty>
0

> <i_epik_Tot_Q>
0

> <i_epik_Tot_abs_Q>
0

> <s_epik_Chemistry_Notes>
This compound has an imine and may undergo hydrolysis.

> <s_lp_Force_Field>
S-OPLS

> <r_lp_Energy>
49.7449

> <b_lp_Chiralities_Consistent>
1

> <s_lp_Variant>
lig_CAT-4n-1

> <s_i_glide_gridfile>
glide-grid_4DJW-BACE

> <i_i_glide_lignum>
34

> <i_i_glide_rotatable_bonds>
3

> <r_i_docking_score>
-7.14386

> <r_i_glide_ligand_efficiency>
-0.255138

> <r_i_glide_ligand_efficiency_sa>
-0.774749

> <r_i_glide_ligand_efficiency_ln>
-1.64901

> <r_i_glide_gscore>
-7.14386

> <r_i_glide_lipo>
-2.7193

> <r_i_glide_hbond>
-0.414965

> <r_i_glide_metal>
-0

> <r_i_glide_rewards>
-1.26992

> <r_i_glide_evdw>
-41.7827

> <r_i_glide_ecoul>
-6.38029

> <r_i_glide_erotb>
0.428009

> <r_i_glide_esite>
-0.121514

> <r_i_glide_emodel>
-51.0939

> <r_i_glide_energy>
-48.163

> <r_i_glide_einternal>
-2.81004e-07

> <i_i_glide_confnum>
2

> <i_i_glide_posenum>
2

> <r_i_glide_eff_state_penalty>
-0

> <r_i_glide_rmsd>
0.105912

> <s_glide_core_constrain_type>
snapped_core_restrain
$$$$