lig_231
                    3D
 Schrodinger Suite 2021-1.
 38 40  0  0  1  0            999 V2000
   28.2844    2.0387  -11.8027 H   0  0  0  0  0  0
   27.6259    1.6756  -11.2164 O   0  0  0  0  0  0
   27.2925    0.3819  -11.6606 C   0  0  1  0  0  0
   28.1597   -0.2738  -11.6632 H   0  0  0  0  0  0
   26.1524   -0.1410  -10.8290 C   0  0  0  0  0  0
   24.9484    0.0145  -11.5099 C   0  0  0  0  0  0
   23.7236   -0.3695  -10.9455 C   0  0  0  0  0  0
   22.5995   -0.2386  -11.7204 O   0  0  0  0  0  0
   21.3745   -0.5162  -11.1881 C   0  0  0  0  0  0
   20.7863   -1.7773  -11.4001 C   0  0  0  0  0  0
   21.3074   -2.5340  -11.9662 H   0  0  0  0  0  0
   19.5117   -2.0461  -10.8718 C   0  0  0  0  0  0
   18.9334   -3.2476  -11.0805 F   0  0  0  0  0  0
   18.8257   -1.0560  -10.1475 C   0  0  0  0  0  0
   17.8472   -1.2768   -9.7497 H   0  0  0  0  0  0
   19.4011    0.2146   -9.9603 C   0  0  0  0  0  0
   18.6794    1.2557   -9.2535 C   0  0  0  0  0  0
   18.1064    2.0813   -8.6831 N   0  0  0  0  0  0
   20.6864    0.4753  -10.4621 C   0  0  0  0  0  0
   21.1412    1.4409  -10.2892 H   0  0  0  0  0  0
   23.7338   -0.8803   -9.6214 C   0  0  0  0  0  0
   22.8212   -1.1870   -9.1301 H   0  0  0  0  0  0
   24.9516   -1.0259   -8.9188 C   0  0  0  0  0  0
   24.9360   -1.4228   -7.9147 H   0  0  0  0  0  0
   26.1801   -0.6840   -9.5263 C   0  0  0  0  0  0
   27.7013   -0.8898   -8.5901 S   0  0  0  0  0  0
   27.4453   -1.8207   -7.4832 O   0  0  0  0  0  0
   28.7989   -1.2037   -9.5084 O   0  0  0  0  0  0
   28.0242    0.7708   -7.8864 C   0  0  0  0  0  0
   29.0330    0.7796   -7.4825 H   0  0  0  0  0  0
   27.9594    1.5241   -8.6699 H   0  0  0  0  0  0
   27.2934    0.9929   -7.1085 H   0  0  0  0  0  0
   25.1555    0.6003  -12.8820 C   0  0  0  0  0  0
   24.5898    0.0703  -13.6463 H   0  0  0  0  0  0
   24.8424    1.6452  -12.8733 H   0  0  0  0  0  0
   26.6767    0.4704  -13.0766 C   0  0  1  0  0  0
   26.8583   -0.4829  -13.5771 H   0  0  0  0  0  0
   27.2229    1.4027  -13.8592 F   0  0  0  0  0  0
  1  2  1  0  0  0
  2  3  1  0  0  0
  3 36  1  0  0  0
  3  4  1  0  0  0
  3  5  1  0  0  0
  5 25  1  0  0  0
  5  6  2  0  0  0
  6  7  1  0  0  0
  6 33  1  0  0  0
  7  8  1  0  0  0
  7 21  2  0  0  0
  8  9  1  0  0  0
  9 19  1  0  0  0
  9 10  2  0  0  0
 10 11  1  0  0  0
 10 12  1  0  0  0
 12 13  1  0  0  0
 12 14  2  0  0  0
 14 15  1  0  0  0
 14 16  1  0  0  0
 16 17  1  0  0  0
 16 19  2  0  0  0
 17 18  3  0  0  0
 19 20  1  0  0  0
 21 22  1  0  0  0
 21 23  1  0  0  0
 23 24  1  0  0  0
 23 25  2  0  0  0
 25 26  1  0  0  0
 26 27  2  0  0  0
 26 28  2  0  0  0
 26 29  1  0  0  0
 29 30  1  0  0  0
 29 31  1  0  0  0
 29 32  1  0  0  0
 33 34  1  0  0  0
 33 35  1  0  0  0
 33 36  1  0  0  0
 36 37  1  0  0  0
 36 38  1  0  0  0
M  END
> <s_m_source_file>
ligprep_hif2a.smi

> <i_m_source_file_index>
15

> <i_lp_mmshare_version>
53161

> <i_f3d_flags>
0

> <s_epik_input>
W09IXVtDQEBIXTFbQ0BIXShGKVtDSDJdYyhjMTIpYyhbY0hdW2NIXWMyUyg9TykoPU8pW0NIM10pT2MzW2NIXWMoRilbY0hdYyhDI04pW2NIXTM=

> <s_epik_cmdline>
J2VwaWtfcHl0aG9uJywgJy1waHQnLCAnMC4wJywgJy1waCcsICc3LjQnLCAnLXRuJywgJzgnLCAnLW1hJywgJzUwMCcsICctaW1hZScsICc8aW5maWxlLm1hZT4nLCAnLW9tYWUnLCAnPG91dGZpbGUubWFlPic=

> <r_lp_tautomer_probability>
1

> <r_epik_Ionization_Penalty>
0

> <r_epik_Ionization_Penalty_Charging>
0

> <r_epik_Ionization_Penalty_Neutral>
0

> <r_epik_State_Penalty>
-0

> <r_epik_Charging_Adjusted_Penalty>
0

> <i_epik_Tot_Q>
0

> <i_epik_Tot_abs_Q>
0

> <s_lp_Force_Field>
S-OPLS

> <r_lp_Energy>
22.2482

> <b_lp_Chiralities_Consistent>
1

> <s_lp_Variant>
lig_231-1

> <s_i_glide_gridfile>
glide-grid_5TBM-HIF2a

> <i_i_glide_lignum>
15

> <i_i_glide_rotatable_bonds>
4

> <r_i_docking_score>
-12.476

> <r_i_glide_ligand_efficiency>
-0.499039

> <r_i_glide_ligand_efficiency_sa>
-1.4592

> <r_i_glide_ligand_efficiency_ln>
-2.95718

> <r_i_glide_gscore>
-12.476

> <r_i_glide_lipo>
-4.77161

> <r_i_glide_hbond>
-0.608

> <r_i_glide_metal>
-0

> <r_i_glide_rewards>
-3.5142

> <r_i_glide_evdw>
-55.2011

> <r_i_glide_ecoul>
-9.32352

> <r_i_glide_erotb>
0.576411

> <r_i_glide_esite>
0

> <r_i_glide_emodel>
-111.254

> <r_i_glide_energy>
-64.5246

> <r_i_glide_einternal>
5.63715e-06

> <i_i_glide_confnum>
3

> <i_i_glide_posenum>
3

> <r_i_glide_eff_state_penalty>
-0

> <r_i_glide_rmsd>
0.068629

> <s_glide_core_constrain_type>
snapped_core_restrain
$$$$