lig_15
                    3D
 Schrodinger Suite 2021-1.
 38 40  0  0  1  0            999 V2000
   28.3021    2.0543  -11.8553 H   0  0  0  0  0  0
   27.6273    1.7130  -11.2855 O   0  0  0  0  0  0
   27.2512    0.4288  -11.7217 C   0  0  1  0  0  0
   28.1192   -0.2299  -11.7342 H   0  0  0  0  0  0
   26.1175   -0.0810  -10.8639 C   0  0  0  0  0  0
   24.9106    0.0681  -11.5327 C   0  0  0  0  0  0
   23.6879   -0.3254  -10.9619 C   0  0  0  0  0  0
   22.5658   -0.1945  -11.7334 O   0  0  0  0  0  0
   21.3428   -0.4902  -11.2038 C   0  0  0  0  0  0
   20.7701   -1.7568  -11.4203 C   0  0  0  0  0  0
   21.3002   -2.5071  -11.9908 H   0  0  0  0  0  0
   19.4998   -2.0416  -10.8917 C   0  0  0  0  0  0
   18.9344   -3.2473  -11.1039 F   0  0  0  0  0  0
   18.8075   -1.0644  -10.1578 C   0  0  0  0  0  0
   17.8328   -1.3048   -9.7576 H   0  0  0  0  0  0
   19.3681    0.2138   -9.9681 C   0  0  0  0  0  0
   18.6478    1.2484   -9.2564 C   0  0  0  0  0  0
   18.0746    2.0761   -8.6827 N   0  0  0  0  0  0
   20.6467    0.4900  -10.4760 C   0  0  0  0  0  0
   21.0921    1.4605  -10.3122 H   0  0  0  0  0  0
   23.7088   -0.8238   -9.6335 C   0  0  0  0  0  0
   22.7971   -1.1250   -9.1380 H   0  0  0  0  0  0
   24.9299   -0.9633   -8.9397 C   0  0  0  0  0  0
   24.9298   -1.3552   -7.9324 H   0  0  0  0  0  0
   26.1551   -0.6310   -9.5584 C   0  0  0  0  0  0
   27.6776   -0.8949   -8.6367 S   0  0  0  0  0  0
   27.4063   -1.9064   -7.6001 O   0  0  0  0  0  0
   28.7718   -1.1485   -9.5763 O   0  0  0  0  0  0
   28.0199    0.7111   -7.8055 C   0  0  0  0  0  0
   29.0593    0.7310   -7.4869 H   0  0  0  0  0  0
   27.7967    1.7228   -8.6372 F   0  0  0  0  0  0
   27.2470    0.8229   -6.7323 F   0  0  0  0  0  0
   25.0949    0.6469  -12.9149 C   0  0  0  0  0  0
   24.5130    0.1107  -13.6664 H   0  0  0  0  0  0
   24.7684    1.6857  -12.9025 H   0  0  0  0  0  0
   26.6144    0.5428  -13.1308 C   0  0  0  0  0  0
   27.1158    1.5381  -13.8654 F   0  0  0  0  0  0
   26.8415   -0.5976  -13.7812 F   0  0  0  0  0  0
  1  2  1  0  0  0
  2  3  1  0  0  0
  3 36  1  0  0  0
  3  4  1  0  0  0
  3  5  1  0  0  0
  5 25  1  0  0  0
  5  6  2  0  0  0
  6  7  1  0  0  0
  6 33  1  0  0  0
  7  8  1  0  0  0
  7 21  2  0  0  0
  8  9  1  0  0  0
  9 19  1  0  0  0
  9 10  2  0  0  0
 10 11  1  0  0  0
 10 12  1  0  0  0
 12 13  1  0  0  0
 12 14  2  0  0  0
 14 15  1  0  0  0
 14 16  1  0  0  0
 16 17  1  0  0  0
 16 19  2  0  0  0
 17 18  3  0  0  0
 19 20  1  0  0  0
 21 22  1  0  0  0
 21 23  1  0  0  0
 23 24  1  0  0  0
 23 25  2  0  0  0
 25 26  1  0  0  0
 26 27  2  0  0  0
 26 28  2  0  0  0
 26 29  1  0  0  0
 29 30  1  0  0  0
 29 31  1  0  0  0
 29 32  1  0  0  0
 33 34  1  0  0  0
 33 35  1  0  0  0
 33 36  1  0  0  0
 36 37  1  0  0  0
 36 38  1  0  0  0
M  END
> <s_m_source_file>
ligprep_hif2a.smi

> <i_m_source_file_index>
3

> <i_lp_mmshare_version>
53161

> <i_f3d_flags>
0

> <s_epik_input>
RltDSF0oRilTKD1PKSg9TyljMVtjSF1bY0hdYyhjKGMxMilbQ0gyXUMoRikoRilbQ0BIXTJbT0hdKU9jM1tjSF1jKEYpW2NIXWMoQyNOKVtjSF0z

> <s_epik_cmdline>
J2VwaWtfcHl0aG9uJywgJy1waHQnLCAnMC4wJywgJy1waCcsICc3LjQnLCAnLXRuJywgJzgnLCAnLW1hJywgJzUwMCcsICctaW1hZScsICc8aW5maWxlLm1hZT4nLCAnLW9tYWUnLCAnPG91dGZpbGUubWFlPic=

> <r_lp_tautomer_probability>
1

> <r_epik_Ionization_Penalty>
0.0012

> <r_epik_Ionization_Penalty_Charging>
0

> <r_epik_Ionization_Penalty_Neutral>
0.0012

> <r_epik_State_Penalty>
-0

> <r_epik_Charging_Adjusted_Penalty>
0

> <i_epik_Tot_Q>
0

> <i_epik_Tot_abs_Q>
0

> <s_lp_Force_Field>
S-OPLS

> <r_lp_Energy>
30.619

> <b_lp_Chiralities_Consistent>
1

> <s_lp_Variant>
lig_15-1

> <s_i_glide_gridfile>
glide-grid_5TBM-HIF2a

> <i_i_glide_lignum>
3

> <i_i_glide_rotatable_bonds>
5

> <r_i_docking_score>
-12.0622

> <r_i_glide_ligand_efficiency>
-0.430794

> <r_i_glide_ligand_efficiency_sa>
-1.30814

> <r_i_glide_ligand_efficiency_ln>
-2.78432

> <r_i_glide_gscore>
-12.0622

> <r_i_glide_lipo>
-4.73848

> <r_i_glide_hbond>
-0.608

> <r_i_glide_metal>
-0

> <r_i_glide_rewards>
-3.17781

> <r_i_glide_evdw>
-54.8469

> <r_i_glide_ecoul>
-9.05417

> <r_i_glide_erotb>
0.562534

> <r_i_glide_esite>
0

> <r_i_glide_emodel>
-109.135

> <r_i_glide_energy>
-63.9011

> <r_i_glide_einternal>
1.22147

> <i_i_glide_confnum>
4

> <i_i_glide_posenum>
23

> <r_i_glide_eff_state_penalty>
-0

> <r_i_glide_rmsd>
0.0841051

> <s_glide_core_constrain_type>
snapped_core_restrain
$$$$