lig_39
                    3D
 Schrodinger Suite 2021-1.
 45 48  0  0  1  0            999 V2000
   96.7137   45.9586  267.0648 H   0  0  0  0  0  0
   95.9981   46.7577  267.2148 C   0  0  0  0  0  0
   94.7343   46.5322  266.8153 N   0  0  0  0  0  0
   93.8305   47.5291  266.9803 C   0  0  0  0  0  0
   94.2049   48.7714  267.5856 C   0  0  0  0  0  0
   95.4802   48.9600  268.0138 N   0  0  0  0  0  0
   96.3737   47.9697  267.8133 C   0  0  0  0  0  0
   97.3914   48.1544  268.1230 H   0  0  0  0  0  0
   93.2294   49.7952  267.7328 C   0  0  0  0  0  0
   93.5507   51.0950  268.3620 C   0  0  0  0  0  0
   94.5432   51.9425  267.8191 C   0  0  0  0  0  0
   95.0817   51.6384  266.9315 H   0  0  0  0  0  0
   94.8330   53.1881  268.4136 C   0  0  0  0  0  0
   95.5861   53.8274  267.9792 H   0  0  0  0  0  0
   94.1330   53.6026  269.5626 C   0  0  0  0  0  0
   94.3623   54.5611  270.0134 H   0  0  0  0  0  0
   93.1686   52.7538  270.1313 C   0  0  0  0  0  0
   92.4910   53.1482  271.2829 N   0  0  0  0  0  0
   92.7249   54.0098  271.7594 H   0  0  0  0  0  0
   91.8876   52.5117  271.7823 H   0  0  0  0  0  0
   92.8644   51.5166  269.5240 C   0  0  0  0  0  0
   92.1103   50.8753  269.9579 H   0  0  0  0  0  0
   91.9055   49.5612  267.2904 C   0  0  0  0  0  0
   91.1656   50.3363  267.4169 H   0  0  0  0  0  0
   91.5305   48.3428  266.6940 C   0  0  0  0  0  0
   90.1900   48.1452  266.3346 N   0  0  0  0  0  0
   89.5012   48.6623  266.8807 H   0  0  0  0  0  0
   89.6448   47.3170  265.3338 C   0  0  0  0  0  0
   90.3762   46.9292  264.1846 C   0  0  0  0  0  0
   91.3948   47.2533  264.0391 H   0  0  0  0  0  0
   89.8771   46.1374  263.2136 N   0  0  0  0  0  0
   88.6102   45.7127  263.3066 C   0  0  0  0  0  0
   88.2491   45.0690  262.5202 H   0  0  0  0  0  0
   87.7810   46.0429  264.3856 C   0  0  0  0  0  0
   86.7680   45.6659  264.4403 H   0  0  0  0  0  0
   88.2985   46.8719  265.3995 C   0  0  0  0  0  0
   87.2222   47.2141  266.7939 S   0  0  0  0  0  0
   85.8276   47.1541  266.3326 O   0  0  0  0  0  0
   87.6880   48.4249  267.4812 O   0  0  0  0  0  0
   87.5292   45.7931  267.9052 C   0  0  0  0  0  0
   86.9106   45.8884  268.7957 H   0  0  0  0  0  0
   87.2725   44.8733  267.3760 H   0  0  0  0  0  0
   88.5795   45.7657  268.1829 H   0  0  0  0  0  0
   92.4998   47.3342  266.5542 C   0  0  0  0  0  0
   92.2314   46.3821  266.1237 H   0  0  0  0  0  0
  1  2  1  0  0  0
  2  7  1  0  0  0
  2  3  2  0  0  0
  3  4  1  0  0  0
  4 44  1  0  0  0
  4  5  2  0  0  0
  5  6  1  0  0  0
  5  9  1  0  0  0
  6  7  2  0  0  0
  7  8  1  0  0  0
  9 10  1  0  0  0
  9 23  2  0  0  0
 10 21  1  0  0  0
 10 11  2  0  0  0
 11 12  1  0  0  0
 11 13  1  0  0  0
 13 14  1  0  0  0
 13 15  2  0  0  0
 15 16  1  0  0  0
 15 17  1  0  0  0
 17 18  1  0  0  0
 17 21  2  0  0  0
 18 19  1  0  0  0
 18 20  1  0  0  0
 21 22  1  0  0  0
 23 24  1  0  0  0
 23 25  1  0  0  0
 25 26  1  0  0  0
 25 44  2  0  0  0
 26 27  1  0  0  0
 26 28  1  0  0  0
 28 36  1  0  0  0
 28 29  2  0  0  0
 29 30  1  0  0  0
 29 31  1  0  0  0
 31 32  2  0  0  0
 32 33  1  0  0  0
 32 34  1  0  0  0
 34 35  1  0  0  0
 34 36  2  0  0  0
 36 37  1  0  0  0
 37 38  2  0  0  0
 37 39  2  0  0  0
 37 40  1  0  0  0
 40 41  1  0  0  0
 40 42  1  0  0  0
 40 43  1  0  0  0
 44 45  1  0  0  0
M  END
> <s_m_source_file>
ligprep_pfkfb3.smi

> <i_m_source_file_index>
15

> <i_lp_mmshare_version>
53161

> <i_f3d_flags>
0

> <s_epik_input>
W05IMl1jKFtjSF0xKVtjSF1bY0hdW2NIXWMxLWMoYyhjMjMpbltjSF1bY0hdbjIpW2NIXWMoW2NIXTMpW05IXWM0W2NIXW5bY0hdW2NIXWM0Uyg9TykoPU8pW0NIM10=

> <s_epik_cmdline>
J2VwaWtfcHl0aG9uJywgJy1waHQnLCAnMC4wJywgJy1waCcsICc3LjQnLCAnLXRuJywgJzgnLCAnLW1hJywgJzUwMCcsICctaW1hZScsICc8aW5maWxlLm1hZT4nLCAnLW9tYWUnLCAnPG91dGZpbGUubWFlPic=

> <r_lp_tautomer_probability>
1

> <r_epik_Ionization_Penalty>
0.0005

> <r_epik_Ionization_Penalty_Charging>
0

> <r_epik_Ionization_Penalty_Neutral>
0.0005

> <r_epik_State_Penalty>
-0

> <r_epik_Charging_Adjusted_Penalty>
0

> <i_epik_Tot_Q>
0

> <i_epik_Tot_abs_Q>
0

> <s_lp_Force_Field>
S-OPLS

> <r_lp_Energy>
46.4165

> <b_lp_Chiralities_Consistent>
1

> <s_lp_Variant>
lig_39-1

> <s_i_glide_gridfile>
glide-grid_6HVI-PFKFB3

> <i_i_glide_lignum>
15

> <i_i_glide_rotatable_bonds>
4

> <r_i_docking_score>
-10.0568

> <r_i_glide_ligand_efficiency>
-0.359172

> <r_i_glide_ligand_efficiency_sa>
-1.09066

> <r_i_glide_ligand_efficiency_ln>
-2.32141

> <r_i_glide_gscore>
-10.0568

> <r_i_glide_lipo>
-5.26709

> <r_i_glide_hbond>
-0.32

> <r_i_glide_metal>
-0

> <r_i_glide_rewards>
-1.16795

> <r_i_glide_evdw>
-56.5027

> <r_i_glide_ecoul>
-6.05581

> <r_i_glide_erotb>
0.50942

> <r_i_glide_esite>
-0.0776929

> <r_i_glide_emodel>
-103.735

> <r_i_glide_energy>
-62.5585

> <r_i_glide_einternal>
-1.43021e-07

> <i_i_glide_confnum>
1

> <i_i_glide_posenum>
1

> <r_i_glide_eff_state_penalty>
-0

> <r_i_glide_rmsd>
0.0867453

> <s_glide_core_constrain_type>
snapped_core_restrain
$$$$