lig_37
                    3D
 Schrodinger Suite 2021-1.
 52 56  0  0  1  0            999 V2000
   -2.1221   14.5357   -7.5453 H   0  0  0  0  0  0
   -1.5770   13.7046   -7.1139 C   0  0  0  0  0  0
   -0.3468   13.9022   -6.6576 N   0  0  0  0  0  0
    0.0394   12.6921   -6.1713 N   0  0  0  0  0  0
    1.3348   12.5381   -5.5408 C   0  0  0  0  0  0
    1.2390   11.9124   -4.6518 H   0  0  0  0  0  0
    2.0226   12.0555   -6.2328 H   0  0  0  0  0  0
    1.7348   13.5101   -5.2486 H   0  0  0  0  0  0
   -0.9298   11.7307   -6.3413 C   0  0  0  0  0  0
   -0.7917   10.7102   -6.0124 H   0  0  0  0  0  0
   -1.9905   12.3554   -6.9293 C   0  0  0  0  0  0
   -3.2989   11.7635   -7.2470 C   0  0  0  0  0  0
   -4.4975   12.4415   -6.9347 C   0  0  0  0  0  0
   -4.4616   13.4193   -6.4770 H   0  0  0  0  0  0
   -5.7478   11.8378   -7.1693 C   0  0  0  0  0  0
   -6.6535   12.3636   -6.9052 H   0  0  0  0  0  0
   -5.8183   10.5513   -7.7401 C   0  0  0  0  0  0
   -7.1678    9.8860   -7.9538 C   0  0  0  0  0  0
   -7.9452   10.4889   -7.4851 H   0  0  0  0  0  0
   -7.1701    8.9405   -7.4099 H   0  0  0  0  0  0
   -7.5106    9.6754   -9.4031 C   0  0  0  0  0  0
   -8.1409    8.5946   -9.7996 N   0  0  0  0  0  0
   -8.3309    8.7287  -11.1372 N   0  0  0  0  0  0
   -8.8366    8.0187  -11.6596 H   0  0  0  0  0  0
   -7.8077    9.9006  -11.6518 C   0  0  0  0  0  0
   -7.2460   10.5415  -10.5177 C   0  0  0  0  0  0
   -6.5976   11.7791  -10.7273 C   0  0  0  0  0  0
   -6.1739   12.2923   -9.8785 H   0  0  0  0  0  0
   -6.4342   12.3187  -12.0246 C   0  0  0  0  0  0
   -5.6375   13.5778  -12.2358 C   0  0  0  0  0  0
   -6.0955   14.4678  -12.9534 O   0  0  0  0  0  0
   -4.4266   13.6720  -11.6370 N   0  0  0  0  0  0
   -3.5849   14.8645  -11.7322 C   0  0  0  0  0  0
   -4.0621   15.7235  -11.2593 H   0  0  0  0  0  0
   -3.4179   15.1241  -12.7788 H   0  0  0  0  0  0
   -2.2614   14.5070  -11.0501 C   0  0  0  0  0  0
   -2.2729   14.8412  -10.0116 H   0  0  0  0  0  0
   -1.4051   14.9703  -11.5344 H   0  0  0  0  0  0
   -2.2050   12.9873  -11.0925 C   0  0  0  0  0  0
   -1.7763   12.6623  -12.0426 H   0  0  0  0  0  0
   -1.6000   12.5566  -10.2912 H   0  0  0  0  0  0
   -3.6728   12.5788  -11.0149 C   0  0  0  0  0  0
   -3.8289   11.6208  -11.5134 H   0  0  0  0  0  0
   -3.9688   12.4801   -9.9723 H   0  0  0  0  0  0
   -7.0577   11.6831  -13.1223 C   0  0  0  0  0  0
   -6.9900   12.1114  -14.1128 H   0  0  0  0  0  0
   -7.7580   10.4752  -12.9343 C   0  0  0  0  0  0
   -8.2355    9.9833  -13.7671 H   0  0  0  0  0  0
   -4.6254    9.8829   -8.0873 C   0  0  0  0  0  0
   -4.6562    8.8982   -8.5307 H   0  0  0  0  0  0
   -3.3783   10.4833   -7.8307 C   0  0  0  0  0  0
   -2.4702    9.9528   -8.0759 H   0  0  0  0  0  0
  1  2  1  0  0  0
  2 11  1  0  0  0
  2  3  2  0  0  0
  3  4  1  0  0  0
  4  5  1  0  0  0
  4  9  1  0  0  0
  5  6  1  0  0  0
  5  7  1  0  0  0
  5  8  1  0  0  0
  9 10  1  0  0  0
  9 11  2  0  0  0
 11 12  1  0  0  0
 12 51  1  0  0  0
 12 13  2  0  0  0
 13 14  1  0  0  0
 13 15  1  0  0  0
 15 16  1  0  0  0
 15 17  2  0  0  0
 17 18  1  0  0  0
 17 49  1  0  0  0
 18 19  1  0  0  0
 18 20  1  0  0  0
 18 21  1  0  0  0
 21 26  1  0  0  0
 21 22  2  0  0  0
 22 23  1  0  0  0
 23 24  1  0  0  0
 23 25  1  0  0  0
 25 47  1  0  0  0
 25 26  2  0  0  0
 26 27  1  0  0  0
 27 28  1  0  0  0
 27 29  2  0  0  0
 29 30  1  0  0  0
 29 45  1  0  0  0
 30 31  2  0  0  0
 30 32  1  0  0  0
 32 42  1  0  0  0
 32 33  1  0  0  0
 33 34  1  0  0  0
 33 35  1  0  0  0
 33 36  1  0  0  0
 36 37  1  0  0  0
 36 38  1  0  0  0
 36 39  1  0  0  0
 39 40  1  0  0  0
 39 41  1  0  0  0
 39 42  1  0  0  0
 42 43  1  0  0  0
 42 44  1  0  0  0
 45 46  1  0  0  0
 45 47  2  0  0  0
 47 48  1  0  0  0
 49 50  1  0  0  0
 49 51  2  0  0  0
 51 52  1  0  0  0
M  END
> <s_m_source_file>
ligprep_cdk8.smi

> <i_m_source_file_index>
25

> <i_lp_mmshare_version>
53161

> <i_f3d_flags>
0

> <s_epik_input>
W0NIM11uMW5bY0hdYyhbY0hdMSktYzJbY0hdW2NIXWMoW2NIXVtjSF0yKVtDSDJdYyhuW25IXTMpYyhjMzQpW2NIXWMoW2NIXVtjSF00KUMoPU8pTjVbQ0gyXVtDSDJdW0NIMl1bQ0gyXTU=

> <s_epik_cmdline>
J2VwaWtfcHl0aG9uJywgJy1waHQnLCAnMC4wJywgJy1waCcsICc3LjQnLCAnLXRuJywgJzgnLCAnLW1hJywgJzUwMCcsICctaW1hZScsICc8aW5maWxlLm1hZT4nLCAnLW9tYWUnLCAnPG91dGZpbGUubWFlPic=

> <r_lp_tautomer_probability>
1

> <r_epik_Ionization_Penalty>
0.0001

> <r_epik_Ionization_Penalty_Charging>
0

> <r_epik_Ionization_Penalty_Neutral>
0.0001

> <r_epik_State_Penalty>
-0

> <r_epik_Charging_Adjusted_Penalty>
0

> <i_epik_Tot_Q>
0

> <i_epik_Tot_abs_Q>
0

> <s_lp_Force_Field>
S-OPLS

> <r_lp_Energy>
39.1985

> <b_lp_Chiralities_Consistent>
1

> <s_lp_Variant>
lig_37-1

> <s_i_glide_gridfile>
glide-grid_5HNB-CDK8

> <i_i_glide_lignum>
25

> <i_i_glide_rotatable_bonds>
5

> <r_i_docking_score>
-10.2667

> <r_i_glide_ligand_efficiency>
-0.354023

> <r_i_glide_ligand_efficiency_sa>
-1.08767

> <r_i_glide_ligand_efficiency_ln>
-2.35081

> <r_i_glide_gscore>
-10.2667

> <r_i_glide_lipo>
-4.23116

> <r_i_glide_hbond>
-0.571554

> <r_i_glide_metal>
-0

> <r_i_glide_rewards>
-2.56127

> <r_i_glide_evdw>
-50.1

> <r_i_glide_ecoul>
-5.7062

> <r_i_glide_erotb>
0.458245

> <r_i_glide_esite>
0

> <r_i_glide_emodel>
-89.0246

> <r_i_glide_energy>
-55.8062

> <r_i_glide_einternal>
3.33999

> <i_i_glide_confnum>
1

> <i_i_glide_posenum>
10

> <r_i_glide_eff_state_penalty>
-0

> <r_i_glide_rmsd>
0.0854734

> <s_glide_core_constrain_type>
snapped_core_restrain
$$$$