lig_16
                    3D
 Schrodinger Suite 2021-1.
 38 40  0  0  1  0            999 V2000
   -2.5347    9.8434   -8.1644 H   0  0  0  0  0  0
   -3.4215   10.3875   -7.8703 C   0  0  0  0  0  0
   -4.6967    9.8348   -8.0969 C   0  0  0  0  0  0
   -4.7826    8.8646   -8.5657 H   0  0  0  0  0  0
   -5.8539   10.5376   -7.7024 C   0  0  0  0  0  0
   -7.2268    9.9321   -7.9329 C   0  0  0  0  0  0
   -7.9945   10.5778   -7.5022 H   0  0  0  0  0  0
   -7.2789    8.9982   -7.3677 H   0  0  0  0  0  0
   -7.5298    9.7038   -9.3886 C   0  0  0  0  0  0
   -8.1487    8.6163   -9.7835 N   0  0  0  0  0  0
   -8.3548    8.7582  -11.1178 N   0  0  0  0  0  0
   -8.8594    8.0436  -11.6337 H   0  0  0  0  0  0
   -7.8172    9.9219  -11.6402 C   0  0  0  0  0  0
   -7.2316   10.5550  -10.5114 C   0  0  0  0  0  0
   -6.5444   11.7722  -10.7356 C   0  0  0  0  0  0
   -6.0876   12.2733   -9.8973 H   0  0  0  0  0  0
   -6.4173   12.3234  -12.0326 C   0  0  0  0  0  0
   -5.6311   13.5826  -12.2573 C   0  0  0  0  0  0
   -6.0247   14.4531  -13.0338 O   0  0  0  0  0  0
   -4.4712   13.6599  -11.5919 N   0  0  0  0  0  0
   -4.1855   12.8612  -11.0434 H   0  0  0  0  0  0
   -3.5850   14.8163  -11.6249 C   0  0  0  0  0  0
   -2.6669   14.6124  -11.0731 H   0  0  0  0  0  0
   -4.0722   15.6805  -11.1718 H   0  0  0  0  0  0
   -3.3112   15.0792  -12.6463 H   0  0  0  0  0  0
   -7.0614   11.6952  -13.1193 C   0  0  0  0  0  0
   -6.9935   12.1215  -14.1103 H   0  0  0  0  0  0
   -7.7688   10.4933  -12.9247 C   0  0  0  0  0  0
   -8.2544   10.0108  -13.7586 H   0  0  0  0  0  0
   -5.7251   11.8059   -7.1001 C   0  0  0  0  0  0
   -6.6059   12.3541   -6.8057 H   0  0  0  0  0  0
   -4.4500   12.3695   -6.8923 C   0  0  0  0  0  0
   -4.3213   13.7353   -6.2547 C   0  0  0  0  0  0
   -3.4066   14.2373   -6.5708 H   0  0  0  0  0  0
   -5.1625   14.3585   -6.5471 H   0  0  0  0  0  0
   -4.3131   13.6528   -5.1676 H   0  0  0  0  0  0
   -3.2974   11.6567   -7.2776 C   0  0  0  0  0  0
   -2.3147   12.0779   -7.1231 H   0  0  0  0  0  0
  1  2  1  0  0  0
  2 37  1  0  0  0
  2  3  2  0  0  0
  3  4  1  0  0  0
  3  5  1  0  0  0
  5  6  1  0  0  0
  5 30  2  0  0  0
  6  7  1  0  0  0
  6  8  1  0  0  0
  6  9  1  0  0  0
  9 14  1  0  0  0
  9 10  2  0  0  0
 10 11  1  0  0  0
 11 12  1  0  0  0
 11 13  1  0  0  0
 13 28  1  0  0  0
 13 14  2  0  0  0
 14 15  1  0  0  0
 15 16  1  0  0  0
 15 17  2  0  0  0
 17 18  1  0  0  0
 17 26  1  0  0  0
 18 19  2  0  0  0
 18 20  1  0  0  0
 20 21  1  0  0  0
 20 22  1  0  0  0
 22 23  1  0  0  0
 22 24  1  0  0  0
 22 25  1  0  0  0
 26 27  1  0  0  0
 26 28  2  0  0  0
 28 29  1  0  0  0
 30 31  1  0  0  0
 30 32  1  0  0  0
 32 33  1  0  0  0
 32 37  2  0  0  0
 33 34  1  0  0  0
 33 35  1  0  0  0
 33 36  1  0  0  0
 37 38  1  0  0  0
M  END
> <s_m_source_file>
ligprep_cdk8.smi

> <i_m_source_file_index>
4

> <i_lp_mmshare_version>
53161

> <i_f3d_flags>
0

> <s_epik_input>
W2NIXTFjKFtDSDNdKVtjSF1bY0hdW2NIXWMxW0NIMl1jKG5bbkhdMiljKGMyMylbY0hdYyhbY0hdW2NIXTMpQyg9TylbTkhdW0NIM10=

> <s_epik_cmdline>
J2VwaWtfcHl0aG9uJywgJy1waHQnLCAnMC4wJywgJy1waCcsICc3LjQnLCAnLXRuJywgJzgnLCAnLW1hJywgJzUwMCcsICctaW1hZScsICc8aW5maWxlLm1hZT4nLCAnLW9tYWUnLCAnPG91dGZpbGUubWFlPic=

> <r_lp_tautomer_probability>
1

> <r_epik_Ionization_Penalty>
0

> <r_epik_Ionization_Penalty_Charging>
0

> <r_epik_Ionization_Penalty_Neutral>
0

> <r_epik_State_Penalty>
-0

> <r_epik_Charging_Adjusted_Penalty>
0

> <i_epik_Tot_Q>
0

> <i_epik_Tot_abs_Q>
0

> <s_lp_Force_Field>
S-OPLS

> <r_lp_Energy>
26.1708

> <b_lp_Chiralities_Consistent>
1

> <s_lp_Variant>
lig_16-1

> <s_i_glide_gridfile>
glide-grid_5HNB-CDK8

> <i_i_glide_lignum>
4

> <i_i_glide_rotatable_bonds>
4

> <r_i_docking_score>
-9.37831

> <r_i_glide_ligand_efficiency>
-0.446586

> <r_i_glide_ligand_efficiency_sa>
-1.2321

> <r_i_glide_ligand_efficiency_ln>
-2.31877

> <r_i_glide_gscore>
-9.37831

> <r_i_glide_lipo>
-3.78861

> <r_i_glide_hbond>
-0.566828

> <r_i_glide_metal>
-0

> <r_i_glide_rewards>
-2.92907

> <r_i_glide_evdw>
-38.2185

> <r_i_glide_ecoul>
-5.53517

> <r_i_glide_erotb>
0.647399

> <r_i_glide_esite>
0

> <r_i_glide_emodel>
-68.9652

> <r_i_glide_energy>
-43.7537

> <r_i_glide_einternal>
0.0755469

> <i_i_glide_confnum>
1

> <i_i_glide_posenum>
1

> <r_i_glide_eff_state_penalty>
-0

> <r_i_glide_rmsd>
0.0601035

> <s_glide_core_constrain_type>
snapped_core_restrain
$$$$