lig_23475
                    3D
 Schrodinger Suite 2021-1.
 42 44  0  0  1  0            999 V2000
   44.4559    8.8771   -0.1077 H   0  0  0  0  0  0
   45.2231    9.5129    0.3156 C   0  0  0  0  0  0
   44.9544   10.8667    0.5895 C   0  0  0  0  0  0
   45.9556   11.7009    1.1384 C   0  0  0  0  0  0
   47.2277   11.1418    1.3884 C   0  0  0  0  0  0
   47.5000    9.7801    1.1581 C   0  0  0  0  0  0
   46.4838    8.9673    0.6130 C   0  0  0  0  0  0
   46.6702    7.9242    0.4160 H   0  0  0  0  0  0
   48.7760    9.3052    1.4857 N   0  0  0  0  0  0
   49.3977    9.9717    1.9299 H   0  0  0  0  0  0
   48.9846    7.9057    1.8388 C   0  0  0  0  0  0
   50.4457    7.6316    2.1960 C   0  0  0  0  0  0
   50.3760    6.3616    3.0395 C   0  0  0  0  0  0
   49.0998    6.5244    3.8798 C   0  0  0  0  0  0
   48.1766    7.4536    3.0727 C   0  0  0  0  0  0
   47.8710    8.2985    3.6987 H   0  0  0  0  0  0
   47.2636    6.9323    2.7651 H   0  0  0  0  0  0
   48.6226    5.5665    4.0967 H   0  0  0  0  0  0
   49.3330    6.9849    4.8414 H   0  0  0  0  0  0
   50.2829    5.4932    2.3854 H   0  0  0  0  0  0
   51.2638    6.2137    3.6549 H   0  0  0  0  0  0
   51.0719    7.5125    1.3086 H   0  0  0  0  0  0
   50.8531    8.4381    2.8112 H   0  0  0  0  0  0
   48.7214    7.2689    0.9893 H   0  0  0  0  0  0
   48.0171   11.7614    1.7841 H   0  0  0  0  0  0
   45.6837   13.0989    1.4793 C   0  0  0  0  0  0
   46.1504   13.8587    2.5200 C   0  0  0  0  0  0
   45.6967   15.1970    2.5447 C   0  0  0  0  0  0
   44.8222   15.4716    1.5259 C   0  0  0  0  0  0
   44.5789   14.0573    0.5137 S   0  0  0  0  0  0
   44.0828   16.7066    1.1973 C   0  0  0  0  0  0
   43.5415   16.8335    0.0802 O   0  0  0  0  0  0
   44.0263   17.6110    2.0638 O   0  5  0  0  0  0
   46.0231   16.0637    3.5155 O   0  0  0  0  0  0
   47.2423   16.7560    3.3540 C   0  0  0  0  0  0
   47.1292   17.5279    2.5944 H   0  0  0  0  0  0
   48.0427   16.0893    3.0378 H   0  0  0  0  0  0
   47.6233   17.4094    4.6816 C   0  0  0  0  0  0
   48.7271   17.9974    4.7156 O   0  0  0  0  0  0
   46.8242   17.2916    5.6500 O   0  5  0  0  0  0
   47.2858   13.2341    3.9097 Br  0  0  0  0  0  0
   43.9651   11.2481    0.3867 H   0  0  0  0  0  0
  1  2  1  0  0  0
  2  7  1  0  0  0
  2  3  2  0  0  0
  3  4  1  0  0  0
  3 42  1  0  0  0
  4  5  2  0  0  0
  4 26  1  0  0  0
  5  6  1  0  0  0
  5 25  1  0  0  0
  6  7  2  0  0  0
  6  9  1  0  0  0
  7  8  1  0  0  0
  9 10  1  0  0  0
  9 11  1  0  0  0
 11 15  1  0  0  0
 11 12  1  0  0  0
 11 24  1  0  0  0
 12 13  1  0  0  0
 12 22  1  0  0  0
 12 23  1  0  0  0
 13 14  1  0  0  0
 13 20  1  0  0  0
 13 21  1  0  0  0
 14 15  1  0  0  0
 14 18  1  0  0  0
 14 19  1  0  0  0
 15 16  1  0  0  0
 15 17  1  0  0  0
 26 30  1  0  0  0
 26 27  2  0  0  0
 27 28  1  0  0  0
 27 41  1  0  0  0
 28 29  2  0  0  0
 28 34  1  0  0  0
 29 30  1  0  0  0
 29 31  1  0  0  0
 31 32  2  0  0  0
 31 33  1  0  0  0
 34 35  1  0  0  0
 35 36  1  0  0  0
 35 37  1  0  0  0
 35 38  1  0  0  0
 38 39  2  0  0  0
 38 40  1  0  0  0
M  CHG  2  33  -1  40  -1
M  END
> <s_m_source_file>
ligprep_ptp1b.smi

> <i_m_source_file_index>
14

> <i_lp_mmshare_version>
53161

> <i_f3d_flags>
0

> <s_epik_input>
W0NIMl0xW0NIMl1bQ0gyXVtDSDJdW0NIXTFbTkhdYyhbY0hdMilbY0hdW2NIXVtjSF1jMi1jM2MoQnIpYyhjKHMzKUMoPU8pW09IXSlPW0NIMl1DKD1PKVtPSF0=

> <s_epik_cmdline>
J2VwaWtfcHl0aG9uJywgJy1waHQnLCAnMC4wJywgJy1waCcsICc3LjQnLCAnLXRuJywgJzgnLCAnLW1hJywgJzUwMCcsICctaW1hZScsICc8aW5maWxlLm1hZT4nLCAnLW9tYWUnLCAnPG91dGZpbGUubWFlPic=

> <r_lp_tautomer_probability>
1

> <r_epik_Ionization_Penalty>
0.0029

> <r_epik_Ionization_Penalty_Charging>
0.0001

> <r_epik_Ionization_Penalty_Neutral>
0.0029

> <r_epik_State_Penalty>
-0

> <r_epik_Charging_Adjusted_Penalty>
9.21585e-05

> <i_epik_Tot_Q>
-2

> <i_epik_Tot_abs_Q>
2

> <s_lp_Force_Field>
S-OPLS

> <r_lp_Energy>
53.8116

> <b_lp_Chiralities_Consistent>
1

> <s_lp_Variant>
lig_23475-1

> <s_i_glide_gridfile>
glide-grid_2QBS-PTP1B

> <i_i_glide_lignum>
14

> <i_i_glide_rotatable_bonds>
7

> <r_i_docking_score>
-8.55808

> <r_i_glide_ligand_efficiency>
-0.329157

> <r_i_glide_ligand_efficiency_sa>
-0.975126

> <r_i_glide_ligand_efficiency_ln>
-2.00984

> <r_i_glide_gscore>
-8.55808

> <r_i_glide_lipo>
-1.53901

> <r_i_glide_hbond>
-1.29514

> <r_i_glide_metal>
-0

> <r_i_glide_rewards>
-0.444362

> <r_i_glide_evdw>
-38.2688

> <r_i_glide_ecoul>
-29.9372

> <r_i_glide_erotb>
0.726909

> <r_i_glide_esite>
-0.0930439

> <r_i_glide_emodel>
-132.171

> <r_i_glide_energy>
-68.206

> <r_i_glide_einternal>
0.0943256

> <i_i_glide_confnum>
4

> <i_i_glide_posenum>
1

> <r_i_glide_eff_state_penalty>
-0

> <r_i_glide_rmsd>
0.0991981

> <s_glide_core_constrain_type>
snapped_core_restrain
$$$$