lig_7395
                    3D
 Schrodinger Suite 2021-1.
 58 61  0  0  1  0            999 V2000
  -18.1596   -9.9336   33.3109 H   0  0  0  0  0  0
  -18.5692  -10.7803   33.8522 C   0  0  0  0  0  0
  -18.6299  -10.7664   35.2163 C   0  0  0  0  0  0
  -18.2882   -9.9451   35.8372 H   0  0  0  0  0  0
  -19.1644  -11.8634   35.8249 N   0  0  0  0  0  0
  -19.6252  -12.9762   35.0783 C   0  0  0  0  0  0
  -20.0693  -13.9172   35.9129 N   0  0  0  0  0  0
  -19.9650  -13.3998   37.2029 C   0  0  0  0  0  0
  -20.4558  -14.1289   38.3749 C   0  0  0  0  0  0
  -20.6973  -15.3340   38.3908 O   0  0  0  0  0  0
  -20.6857  -13.3335   39.4334 O   0  0  0  0  0  0
  -21.2345  -13.8629   40.6291 C   0  0  0  0  0  0
  -22.2699  -14.1622   40.4538 H   0  0  0  0  0  0
  -20.6866  -14.7516   40.9452 H   0  0  0  0  0  0
  -21.1602  -12.7886   41.7154 C   0  0  0  0  0  0
  -21.5670  -13.1587   42.6585 H   0  0  0  0  0  0
  -20.1295  -12.4818   41.8971 H   0  0  0  0  0  0
  -21.7249  -11.9014   41.4337 H   0  0  0  0  0  0
  -19.3739  -12.1559   37.1674 C   0  0  0  0  0  0
  -18.9677  -11.2152   38.2125 C   0  0  0  0  0  0
  -17.6011  -11.0416   38.4983 C   0  0  0  0  0  0
  -16.8907  -11.6272   37.9351 H   0  0  0  0  0  0
  -17.1690  -10.1240   39.4847 C   0  0  0  0  0  0
  -15.8418   -9.9021   39.7844 O   0  0  0  0  0  0
  -14.8711  -10.6722   39.0990 C   0  0  0  0  0  0
  -13.8851  -10.3671   39.4329 H   0  0  0  0  0  0
  -14.9772  -11.7376   39.3113 H   0  0  0  0  0  0
  -14.9125  -10.5023   38.0233 H   0  0  0  0  0  0
  -18.1377   -9.3771   40.1949 C   0  0  0  0  0  0
  -17.7534   -8.4685   41.1454 O   0  0  0  0  0  0
  -17.3532   -9.0610   42.3723 C   0  0  0  0  0  0
  -17.1613   -8.2783   43.1074 H   0  0  0  0  0  0
  -18.1353   -9.7105   42.7722 H   0  0  0  0  0  0
  -16.4381   -9.6449   42.2634 H   0  0  0  0  0  0
  -19.5155   -9.5321   39.9181 C   0  0  0  0  0  0
  -20.3966   -8.7589   40.6453 O   0  0  0  0  0  0
  -21.7751   -8.8085   40.3018 C   0  0  0  0  0  0
  -22.3243   -8.0930   40.9145 H   0  0  0  0  0  0
  -22.1986   -9.7957   40.4915 H   0  0  0  0  0  0
  -21.9353   -8.5379   39.2558 H   0  0  0  0  0  0
  -19.9156  -10.4663   38.9345 C   0  0  0  0  0  0
  -20.9597  -10.6339   38.7318 H   0  0  0  0  0  0
  -19.5116  -12.8807   33.6460 C   0  0  0  0  0  0
  -19.8855  -13.9423   32.7887 N   0  0  0  0  0  0
  -21.1788  -14.5984   32.9785 C   0  0  0  0  0  0
  -21.4633  -14.6793   34.0267 H   0  0  0  0  0  0
  -21.9461  -13.9882   32.5016 H   0  0  0  0  0  0
  -21.1721  -16.0039   32.3500 C   0  0  0  0  0  0
  -22.1711  -16.4344   32.4007 H   0  0  0  0  0  0
  -20.5131  -16.6747   32.9033 H   0  0  0  0  0  0
  -20.7664  -15.9294   30.9854 O   0  0  0  0  0  0
  -19.4476  -15.4078   30.8520 C   0  0  0  0  0  0
  -19.1621  -15.4145   29.8001 H   0  0  0  0  0  0
  -18.7389  -16.0531   31.3719 H   0  0  0  0  0  0
  -19.3992  -13.9736   31.4085 C   0  0  0  0  0  0
  -20.0136  -13.3128   30.7964 H   0  0  0  0  0  0
  -18.3722  -13.6087   31.3516 H   0  0  0  0  0  0
  -19.0196  -11.8131   33.0758 N   0  0  0  0  0  0
  1  2  1  0  0  0
  2 58  1  0  0  0
  2  3  2  0  0  0
  3  4  1  0  0  0
  3  5  1  0  0  0
  5 19  1  0  0  0
  5  6  1  0  0  0
  6  7  2  0  0  0
  6 43  1  0  0  0
  7  8  1  0  0  0
  8  9  1  0  0  0
  8 19  2  0  0  0
  9 10  2  0  0  0
  9 11  1  0  0  0
 11 12  1  0  0  0
 12 13  1  0  0  0
 12 14  1  0  0  0
 12 15  1  0  0  0
 15 16  1  0  0  0
 15 17  1  0  0  0
 15 18  1  0  0  0
 19 20  1  0  0  0
 20 41  1  0  0  0
 20 21  2  0  0  0
 21 22  1  0  0  0
 21 23  1  0  0  0
 23 24  1  0  0  0
 23 29  2  0  0  0
 24 25  1  0  0  0
 25 26  1  0  0  0
 25 27  1  0  0  0
 25 28  1  0  0  0
 29 30  1  0  0  0
 29 35  1  0  0  0
 30 31  1  0  0  0
 31 32  1  0  0  0
 31 33  1  0  0  0
 31 34  1  0  0  0
 35 36  1  0  0  0
 35 41  2  0  0  0
 36 37  1  0  0  0
 37 38  1  0  0  0
 37 39  1  0  0  0
 37 40  1  0  0  0
 41 42  1  0  0  0
 43 44  1  0  0  0
 43 58  2  0  0  0
 44 55  1  0  0  0
 44 45  1  0  0  0
 45 46  1  0  0  0
 45 47  1  0  0  0
 45 48  1  0  0  0
 48 49  1  0  0  0
 48 50  1  0  0  0
 48 51  1  0  0  0
 51 52  1  0  0  0
 52 53  1  0  0  0
 52 54  1  0  0  0
 52 55  1  0  0  0
 55 56  1  0  0  0
 55 57  1  0  0  0
M  END
> <s_m_source_file>
ligprep_pde10.smi

> <i_m_source_file_index>
29

> <i_lp_mmshare_version>
53161

> <i_f3d_flags>
0

> <s_epik_input>
W0NIMl0xW0NIMl1PW0NIMl1bQ0gyXU4xYyhuW2NIXVtjSF0yKWMobjIzKW5jKEMoPU8pT1tDSDJdW0NIM10pYzMtYzRbY0hdYyhPW0NIM10pYyhPW0NIM10pYyhbY0hdNClPW0NIM10=

> <s_epik_cmdline>
J2VwaWtfcHl0aG9uJywgJy1waHQnLCAnMC4wJywgJy1waCcsICc3LjQnLCAnLXRuJywgJzgnLCAnLW1hJywgJzUwMCcsICctaW1hZScsICc8aW5maWxlLm1hZT4nLCAnLW9tYWUnLCAnPG91dGZpbGUubWFlPic=

> <r_lp_tautomer_probability>
1

> <r_epik_Ionization_Penalty>
0

> <r_epik_Ionization_Penalty_Charging>
0

> <r_epik_Ionization_Penalty_Neutral>
0

> <r_epik_State_Penalty>
-0

> <r_epik_Charging_Adjusted_Penalty>
9.20868e-06

> <i_epik_Tot_Q>
0

> <i_epik_Tot_abs_Q>
0

> <s_epik_Chemistry_Notes>
This compound has an ester and may undergo hydrolysis at high or low pH.

> <s_lp_Force_Field>
S-OPLS

> <r_lp_Energy>
57.1971

> <b_lp_Chiralities_Consistent>
1

> <s_lp_Variant>
lig_7395-1

> <s_i_glide_gridfile>
glide-grid_4BBX-PDE10

> <i_i_glide_lignum>
30

> <i_i_glide_rotatable_bonds>
8

> <r_i_docking_score>
-7.75523

> <r_i_glide_ligand_efficiency>
-0.242351

> <r_i_glide_ligand_efficiency_sa>
-0.769417

> <r_i_glide_ligand_efficiency_ln>
-1.73661

> <r_i_glide_gscore>
-7.75523

> <r_i_glide_lipo>
-3.17086

> <r_i_glide_hbond>
-0.283616

> <r_i_glide_metal>
-0

> <r_i_glide_rewards>
-1.85787

> <r_i_glide_evdw>
-43.2309

> <r_i_glide_ecoul>
-4.59757

> <r_i_glide_erotb>
0.408296

> <r_i_glide_esite>
0

> <r_i_glide_emodel>
-68.3043

> <r_i_glide_energy>
-47.8285

> <r_i_glide_einternal>
2.47456

> <i_i_glide_confnum>
12

> <i_i_glide_posenum>
30

> <r_i_glide_eff_state_penalty>
-0

> <r_i_glide_rmsd>
0.0858089

> <s_glide_core_constrain_type>
snapped_core_restrain
$$$$