lig_18
                    3D
 Schrodinger Suite 2021-1.
 41 44  0  0  1  0            999 V2000
   -4.4941   14.4572   -5.9137 H   0  0  0  0  0  0
   -3.9611   13.6187   -6.3372 C   0  0  0  0  0  0
   -2.6526   13.6564   -6.3831 N   0  0  0  0  0  0
   -2.2649   12.4809   -6.9451 N   0  0  0  0  0  0
   -0.8492   12.2377   -7.1071 C   0  0  0  0  0  0
   -0.6920   11.5653   -7.9469 H   0  0  0  0  0  0
   -0.3175   13.1713   -7.2982 H   0  0  0  0  0  0
   -0.4524   11.7723   -6.2050 H   0  0  0  0  0  0
   -3.3319   11.6597   -7.2869 C   0  0  0  0  0  0
   -4.4765   12.4002   -6.8853 C   0  0  0  0  0  0
   -5.7428   11.8124   -7.0975 C   0  0  0  0  0  0
   -6.6207   12.3572   -6.7997 H   0  0  0  0  0  0
   -5.8702   10.5419   -7.6989 C   0  0  0  0  0  0
   -7.2478    9.9426   -7.9205 C   0  0  0  0  0  0
   -8.0099   10.5936   -7.4879 H   0  0  0  0  0  0
   -7.3039    9.0130   -7.3493 H   0  0  0  0  0  0
   -7.5594    9.7164   -9.3742 C   0  0  0  0  0  0
   -8.1913    8.6353   -9.7634 N   0  0  0  0  0  0
   -8.3980    8.7721  -11.0989 N   0  0  0  0  0  0
   -8.9039    8.0550  -11.6109 H   0  0  0  0  0  0
   -7.8478    9.9268  -11.6278 C   0  0  0  0  0  0
   -7.2589   10.5620  -10.5012 C   0  0  0  0  0  0
   -6.5636   11.7737  -10.7276 C   0  0  0  0  0  0
   -6.1051   12.2758   -9.8907 H   0  0  0  0  0  0
   -6.4292   12.3203  -12.0254 C   0  0  0  0  0  0
   -5.6387   13.5766  -12.2521 C   0  0  0  0  0  0
   -6.0438   14.4576  -13.0132 O   0  0  0  0  0  0
   -4.4633   13.6386  -11.6118 N   0  0  0  0  0  0
   -4.1679   12.8271  -11.0880 H   0  0  0  0  0  0
   -3.5766   14.7949  -11.6431 C   0  0  0  0  0  0
   -2.6521   14.5865  -11.1034 H   0  0  0  0  0  0
   -4.0576   15.6553  -11.1779 H   0  0  0  0  0  0
   -3.3145   15.0678  -12.6639 H   0  0  0  0  0  0
   -7.0725   11.6891  -13.1109 C   0  0  0  0  0  0
   -6.9954   12.1091  -14.1024 H   0  0  0  0  0  0
   -7.7911   10.4932  -12.9144 C   0  0  0  0  0  0
   -8.2755   10.0095  -13.7485 H   0  0  0  0  0  0
   -4.7165    9.8374   -8.1019 C   0  0  0  0  0  0
   -4.8112    8.8694   -8.5747 H   0  0  0  0  0  0
   -3.4407   10.3893   -7.8817 C   0  0  0  0  0  0
   -2.5510    9.8502   -8.1789 H   0  0  0  0  0  0
  1  2  1  0  0  0
  2 10  1  0  0  0
  2  3  2  0  0  0
  3  4  1  0  0  0
  4  5  1  0  0  0
  4  9  1  0  0  0
  5  6  1  0  0  0
  5  7  1  0  0  0
  5  8  1  0  0  0
  9 40  1  0  0  0
  9 10  2  0  0  0
 10 11  1  0  0  0
 11 12  1  0  0  0
 11 13  2  0  0  0
 13 14  1  0  0  0
 13 38  1  0  0  0
 14 15  1  0  0  0
 14 16  1  0  0  0
 14 17  1  0  0  0
 17 22  1  0  0  0
 17 18  2  0  0  0
 18 19  1  0  0  0
 19 20  1  0  0  0
 19 21  1  0  0  0
 21 36  1  0  0  0
 21 22  2  0  0  0
 22 23  1  0  0  0
 23 24  1  0  0  0
 23 25  2  0  0  0
 25 26  1  0  0  0
 25 34  1  0  0  0
 26 27  2  0  0  0
 26 28  1  0  0  0
 28 29  1  0  0  0
 28 30  1  0  0  0
 30 31  1  0  0  0
 30 32  1  0  0  0
 30 33  1  0  0  0
 34 35  1  0  0  0
 34 36  2  0  0  0
 36 37  1  0  0  0
 38 39  1  0  0  0
 38 40  2  0  0  0
 40 41  1  0  0  0
M  END
> <s_m_source_file>
ligprep_cdk8.smi

> <i_m_source_file_index>
6

> <i_lp_mmshare_version>
53161

> <i_f3d_flags>
0

> <s_epik_input>
W0NIM11uMW5bY0hdYyhjMTIpW2NIXWMoW2NIXVtjSF0yKVtDSDJdYyhuW25IXTMpYyhjMzQpW2NIXWMoW2NIXVtjSF00KUMoPU8pW05IXVtDSDNd

> <s_epik_cmdline>
J2VwaWtfcHl0aG9uJywgJy1waHQnLCAnMC4wJywgJy1waCcsICc3LjQnLCAnLXRuJywgJzgnLCAnLW1hJywgJzUwMCcsICctaW1hZScsICc8aW5maWxlLm1hZT4nLCAnLW9tYWUnLCAnPG91dGZpbGUubWFlPic=

> <r_lp_tautomer_probability>
1

> <r_epik_Ionization_Penalty>
0

> <r_epik_Ionization_Penalty_Charging>
0

> <r_epik_Ionization_Penalty_Neutral>
0

> <r_epik_State_Penalty>
-0

> <r_epik_Charging_Adjusted_Penalty>
0

> <i_epik_Tot_Q>
0

> <i_epik_Tot_abs_Q>
0

> <s_lp_Force_Field>
S-OPLS

> <r_lp_Energy>
29.945

> <b_lp_Chiralities_Consistent>
1

> <s_lp_Variant>
lig_18-1

> <s_i_glide_gridfile>
glide-grid_5HNB-CDK8

> <i_i_glide_lignum>
6

> <i_i_glide_rotatable_bonds>
4

> <r_i_docking_score>
-9.55645

> <r_i_glide_ligand_efficiency>
-0.398185

> <r_i_glide_ligand_efficiency_sa>
-1.14857

> <r_i_glide_ligand_efficiency_ln>
-2.2873

> <r_i_glide_gscore>
-9.55645

> <r_i_glide_lipo>
-3.80965

> <r_i_glide_hbond>
-0.578689

> <r_i_glide_metal>
-0

> <r_i_glide_rewards>
-2.71172

> <r_i_glide_evdw>
-41.9543

> <r_i_glide_ecoul>
-5.80593

> <r_i_glide_erotb>
0.512219

> <r_i_glide_esite>
0

> <r_i_glide_emodel>
-76.0622

> <r_i_glide_energy>
-47.7602

> <r_i_glide_einternal>
0.0682514

> <i_i_glide_confnum>
1

> <i_i_glide_posenum>
1

> <r_i_glide_eff_state_penalty>
-0

> <r_i_glide_rmsd>
0.0435766

> <s_glide_core_constrain_type>
snapped_core_restrain
$$$$