lig_65
                    3D
 Schrodinger Suite 2021-1.
 43 45  0  0  1  0            999 V2000
   67.2632  -36.1587   28.4877 H   0  0  0  0  0  0
   68.1079  -35.5955   28.1275 C   0  0  0  0  0  0
   67.9467  -34.7059   27.0499 C   0  0  0  0  0  0
   69.0203  -33.9285   26.5389 C   0  0  0  0  0  0
   70.2871  -34.0965   27.1801 C   0  0  0  0  0  0
   70.4569  -34.9860   28.2598 C   0  0  0  0  0  0
   69.3660  -35.7431   28.7259 C   0  0  0  0  0  0
   69.4948  -36.4303   29.5512 H   0  0  0  0  0  0
   71.9922  -35.1572   29.0290 Cl  0  0  0  0  0  0
   71.4851  -33.0517   26.4371 S   0  0  0  0  0  0
   70.3210  -32.4225   25.2889 C   0  0  0  0  0  0
   69.0540  -32.9650   25.4452 C   0  0  0  0  0  0
   67.8523  -32.6145   24.6212 C   0  0  0  0  0  0
   67.1024  -33.4034   24.6792 H   0  0  0  0  0  0
   68.1230  -32.5601   23.5633 H   0  0  0  0  0  0
   67.2120  -31.2838   25.0537 C   0  0  0  0  0  0
   66.4722  -30.9987   24.3080 H   0  0  0  0  0  0
   67.9721  -30.5022   25.0492 H   0  0  0  0  0  0
   66.5377  -31.3271   26.4278 C   0  0  0  0  0  0
   66.2585  -30.3201   26.7259 H   0  0  0  0  0  0
   67.2151  -31.7252   27.1850 H   0  0  0  0  0  0
   65.3881  -32.1509   26.3262 O   0  0  0  0  0  0
   64.5296  -32.2067   27.3967 C   0  0  0  0  0  0
   63.2698  -32.7923   27.1673 C   0  0  0  0  0  0
   62.3507  -32.9503   28.2236 C   0  0  0  0  0  0
   62.6897  -32.4872   29.5193 C   0  0  0  0  0  0
   63.9344  -31.8612   29.7488 C   0  0  0  0  0  0
   64.8528  -31.7360   28.6927 C   0  0  0  0  0  0
   65.8118  -31.2819   28.8937 H   0  0  0  0  0  0
   64.2992  -31.3229   31.1259 C   0  0  0  0  0  0
   65.2920  -30.8690   31.1257 H   0  0  0  0  0  0
   64.3032  -32.1319   31.8610 H   0  0  0  0  0  0
   63.5865  -30.5683   31.4428 H   0  0  0  0  0  0
   61.5892  -32.6908   30.8304 Cl  0  0  0  0  0  0
   61.0223  -33.6524   27.9587 C   0  0  0  0  0  0
   60.9436  -33.9631   26.9155 H   0  0  0  0  0  0
   60.9317  -34.5456   28.5793 H   0  0  0  0  0  0
   60.1796  -32.9942   28.1741 H   0  0  0  0  0  0
   63.0230  -33.1502   26.1734 H   0  0  0  0  0  0
   70.8756  -31.4198   24.3260 C   0  0  0  0  0  0
   70.1512  -30.9378   23.4224 O   0  0  0  0  0  0
   72.0662  -31.0465   24.4318 O   0  5  0  0  0  0
   66.9726  -34.5972   26.6068 H   0  0  0  0  0  0
  1  2  1  0  0  0
  2  7  1  0  0  0
  2  3  2  0  0  0
  3  4  1  0  0  0
  3 43  1  0  0  0
  4 12  1  0  0  0
  4  5  2  0  0  0
  5  6  1  0  0  0
  5 10  1  0  0  0
  6  7  2  0  0  0
  6  9  1  0  0  0
  7  8  1  0  0  0
 10 11  1  0  0  0
 11 12  2  0  0  0
 11 40  1  0  0  0
 12 13  1  0  0  0
 13 14  1  0  0  0
 13 15  1  0  0  0
 13 16  1  0  0  0
 16 17  1  0  0  0
 16 18  1  0  0  0
 16 19  1  0  0  0
 19 20  1  0  0  0
 19 21  1  0  0  0
 19 22  1  0  0  0
 22 23  1  0  0  0
 23 28  1  0  0  0
 23 24  2  0  0  0
 24 25  1  0  0  0
 24 39  1  0  0  0
 25 26  2  0  0  0
 25 35  1  0  0  0
 26 27  1  0  0  0
 26 34  1  0  0  0
 27 28  2  0  0  0
 27 30  1  0  0  0
 28 29  1  0  0  0
 30 31  1  0  0  0
 30 32  1  0  0  0
 30 33  1  0  0  0
 35 36  1  0  0  0
 35 37  1  0  0  0
 35 38  1  0  0  0
 40 41  2  0  0  0
 40 42  1  0  0  0
M  CHG  1  42  -1
M  END
> <s_m_source_file>
ligprep_mcl1.smi

> <i_m_source_file_index>
39

> <i_lp_mmshare_version>
53161

> <i_f3d_flags>
0

> <s_epik_input>
W2NIXTFbY0hdW2NIXWMoQ2wpYyhjMTIpc2MoQyg9TylbT0hdKWMyW0NIMl1bQ0gyXVtDSDJdT2MzW2NIXWMoW0NIM10pYyhDbCljKFtjSF0zKVtDSDNd

> <s_epik_cmdline>
J2VwaWtfcHl0aG9uJywgJy1waHQnLCAnMC4wJywgJy1waCcsICc3LjQnLCAnLXRuJywgJzgnLCAnLW1hJywgJzUwMCcsICctaW1hZScsICc8aW5maWxlLm1hZT4nLCAnLW9tYWUnLCAnPG91dGZpbGUubWFlPic=

> <r_lp_tautomer_probability>
1

> <r_epik_Ionization_Penalty>
0.0001

> <r_epik_Ionization_Penalty_Charging>
0.0001

> <r_epik_Ionization_Penalty_Neutral>
0

> <r_epik_State_Penalty>
-0

> <r_epik_Charging_Adjusted_Penalty>
7.86687e-05

> <i_epik_Tot_Q>
-1

> <i_epik_Tot_abs_Q>
1

> <s_lp_Force_Field>
S-OPLS

> <r_lp_Energy>
34.235

> <b_lp_Chiralities_Consistent>
1

> <s_lp_Variant>
lig_65-1

> <s_i_glide_gridfile>
glide-grid_4HW3-MCL1

> <i_i_glide_lignum>
39

> <i_i_glide_rotatable_bonds>
6

> <r_i_docking_score>
-9.52864

> <r_i_glide_ligand_efficiency>
-0.366486

> <r_i_glide_ligand_efficiency_sa>
-1.08571

> <r_i_glide_ligand_efficiency_ln>
-2.23777

> <r_i_glide_gscore>
-9.52864

> <r_i_glide_lipo>
-5.74125

> <r_i_glide_hbond>
-0.208311

> <r_i_glide_metal>
-0

> <r_i_glide_rewards>
-1.48796

> <r_i_glide_evdw>
-47.4501

> <r_i_glide_ecoul>
-2.62788

> <r_i_glide_erotb>
0.708243

> <r_i_glide_esite>
-0.0326735

> <r_i_glide_emodel>
-90.6241

> <r_i_glide_energy>
-50.078

> <r_i_glide_einternal>
6.78147e-08

> <i_i_glide_confnum>
2

> <i_i_glide_posenum>
2

> <r_i_glide_eff_state_penalty>
-0

> <r_i_glide_rmsd>
0.0597261

> <s_glide_core_constrain_type>
snapped_core_restrain
$$$$