lig_29_L
                    3D
 Schrodinger Suite 2021-1.
 52 55  0  0  1  0            999 V2000
   11.1520   -4.6085   13.7688 H   0  0  0  0  0  0
   10.3928   -4.1936   14.4136 C   0  0  0  0  0  0
    9.8744   -3.0113   14.0067 N   0  0  0  0  0  0
    8.9528   -2.4260   14.7973 C   0  0  0  0  0  0
    8.5415   -1.4880   14.4525 H   0  0  0  0  0  0
    8.5198   -2.9815   16.0141 C   0  0  0  0  0  0
    7.7795   -2.4745   16.6128 H   0  0  0  0  0  0
    9.0719   -4.2073   16.4252 C   0  0  0  0  0  0
    8.7668   -4.6468   17.3638 H   0  0  0  0  0  0
   10.0332   -4.8472   15.6166 C   0  0  0  0  0  0
   10.6595   -6.1094   16.0551 C   0  0  0  0  0  0
   12.0666   -6.2317   16.1124 C   0  0  0  0  0  0
   12.6770   -5.4030   15.7868 H   0  0  0  0  0  0
   12.6961   -7.3868   16.6420 C   0  0  0  0  0  0
   14.2272   -7.4310   16.8006 C   0  0  2  0  0  0
   14.8157   -8.8365   17.0970 C   0  0  0  0  0  0
   15.1437   -9.2782   18.4042 C   0  0  0  0  0  0
   14.9625   -8.6554   19.2687 H   0  0  0  0  0  0
   15.7480  -10.5345   18.6107 C   0  0  0  0  0  0
   16.0224  -10.8341   19.6116 H   0  0  0  0  0  0
   16.0301  -11.3901   17.5284 C   0  0  0  0  0  0
   16.6722  -12.5831   17.7830 O   0  0  0  0  0  0
   17.9165  -12.7700   17.1187 C   0  0  0  0  0  0
   18.3286  -13.7397   17.4130 H   0  0  0  0  0  0
   18.6342  -12.0025   17.4216 H   0  0  0  0  0  0
   17.8353  -12.7573   16.0321 H   0  0  0  0  0  0
   15.6203  -10.9993   16.2294 C   0  0  0  0  0  0
   15.7759  -11.8164   15.1410 O   0  0  0  0  0  0
   14.9054  -12.9359   15.1312 C   0  0  0  0  0  0
   15.0955  -13.5340   14.2378 H   0  0  0  0  0  0
   15.0481  -13.5785   16.0003 H   0  0  0  0  0  0
   13.8603  -12.6153   15.1066 H   0  0  0  0  0  0
   15.0404   -9.7307   16.0235 C   0  0  0  0  0  0
   14.7617   -9.4439   15.0159 H   0  0  0  0  0  0
   14.6622   -6.3561   17.8227 C   0  0  0  0  0  0
   14.2297   -6.2731   18.9741 O   0  0  0  0  0  0
   15.5262   -5.5261   17.2498 N   0  0  0  0  0  0
   16.1544   -4.3366   17.8210 C   0  0  0  0  0  0
   15.7544   -3.4387   17.3548 H   0  0  0  0  0  0
   15.9806   -4.2616   18.8958 H   0  0  0  0  0  0
   17.2313   -4.3491   17.6565 H   0  0  0  0  0  0
   15.6531   -5.9110   15.9374 C   0  0  0  0  0  0
   16.5269   -5.2173   15.1373 N   0  0  0  0  0  0
   16.5772   -5.3963   14.1352 H   0  0  0  0  0  0
   14.9024   -6.9034   15.6152 N   0  0  0  0  0  0
   11.8813   -8.4547   17.0783 C   0  0  0  0  0  0
   12.3117   -9.3542   17.4965 H   0  0  0  0  0  0
   10.4814   -8.3654   16.9856 C   0  0  0  0  0  0
    9.8732   -9.1916   17.3176 H   0  0  0  0  0  0
    9.8721   -7.1985   16.4867 C   0  0  0  0  0  0
    8.7929   -7.1410   16.4447 H   0  0  0  0  0  0
   17.0061   -4.3546   15.3788 H   0  0  0  0  0  0
  1  2  1  0  0  0
  2 10  1  0  0  0
  2  3  2  0  0  0
  3  4  1  0  0  0
  4  5  1  0  0  0
  4  6  2  0  0  0
  6  7  1  0  0  0
  6  8  1  0  0  0
  8  9  1  0  0  0
  8 10  2  0  0  0
 10 11  1  0  0  0
 11 50  1  0  0  0
 11 12  2  0  0  0
 12 13  1  0  0  0
 12 14  1  0  0  0
 14 46  2  0  0  0
 14 15  1  0  0  0
 15 45  1  0  0  0
 15 35  1  0  0  0
 15 16  1  0  0  0
 16 33  1  0  0  0
 16 17  2  0  0  0
 17 18  1  0  0  0
 17 19  1  0  0  0
 19 20  1  0  0  0
 19 21  2  0  0  0
 21 22  1  0  0  0
 21 27  1  0  0  0
 22 23  1  0  0  0
 23 24  1  0  0  0
 23 25  1  0  0  0
 23 26  1  0  0  0
 27 28  1  0  0  0
 27 33  2  0  0  0
 28 29  1  0  0  0
 29 30  1  0  0  0
 29 31  1  0  0  0
 29 32  1  0  0  0
 33 34  1  0  0  0
 35 36  2  0  0  0
 35 37  1  0  0  0
 37 38  1  0  0  0
 37 42  1  0  0  0
 38 39  1  0  0  0
 38 40  1  0  0  0
 38 41  1  0  0  0
 42 43  1  0  0  0
 42 45  2  0  0  0
 43 44  1  0  0  0
 43 52  1  0  0  0
 46 47  1  0  0  0
 46 48  1  0  0  0
 48 49  1  0  0  0
 48 50  2  0  0  0
 50 51  1  0  0  0
M  END
> <s_m_source_file>
ligprep_bace_p2.smi

> <i_m_source_file_index>
2

> <i_lp_mmshare_version>
53161

> <i_f3d_flags>
0

> <s_epik_input>
W2NIXTFbY0hdW2NIXW5bY0hdYzEtYzJbY0hdYyhbY0hdW2NIXVtjSF0yKVtDQEBdMyhDKD1PKU4oW0NIM10pQyg9TjMpW05IMl0pYzRbY0hdW2NIXWMoT1tDSDNdKWMoW2NIXTQpT1tDSDNd

> <s_epik_cmdline>
J2VwaWtfcHl0aG9uJywgJy1waHQnLCAnMC4wJywgJy1waCcsICc3LjQnLCAnLXRuJywgJzgnLCAnLW1hJywgJzUwMCcsICctaW1hZScsICc8aW5maWxlLm1hZT4nLCAnLW9tYWUnLCAnPG91dGZpbGUubWFlPic=

> <r_lp_tautomer_probability>
1

> <r_epik_Ionization_Penalty>
0.779

> <r_epik_Ionization_Penalty_Charging>
0

> <r_epik_Ionization_Penalty_Neutral>
0.779

> <r_epik_State_Penalty>
-0

> <r_epik_Charging_Adjusted_Penalty>
0

> <i_epik_Tot_Q>
0

> <i_epik_Tot_abs_Q>
0

> <s_epik_Chemistry_Notes>
This compound has an imine and may undergo hydrolysis.

> <s_lp_Force_Field>
S-OPLS

> <r_lp_Energy>
57.9303

> <b_lp_Chiralities_Consistent>
1

> <s_lp_Variant>
lig_29_L-1

> <s_i_glide_gridfile>
glide-grid_3IN4-BACE_P2

> <i_i_glide_lignum>
2

> <i_i_glide_rotatable_bonds>
5

> <r_i_docking_score>
-7.08514

> <r_i_glide_ligand_efficiency>
-0.236171

> <r_i_glide_ligand_efficiency_sa>
-0.733839

> <r_i_glide_ligand_efficiency_ln>
-1.60982

> <r_i_glide_gscore>
-7.08514

> <r_i_glide_lipo>
-2.28967

> <r_i_glide_hbond>
-0.907311

> <r_i_glide_metal>
-0

> <r_i_glide_rewards>
-0.665142

> <r_i_glide_evdw>
-44.4387

> <r_i_glide_ecoul>
-9.80631

> <r_i_glide_erotb>
0.605814

> <r_i_glide_esite>
-0.13595

> <r_i_glide_emodel>
-70.0143

> <r_i_glide_energy>
-54.245

> <r_i_glide_einternal>
14.0993

> <i_i_glide_confnum>
60

> <i_i_glide_posenum>
65

> <r_i_glide_eff_state_penalty>
-0

> <r_i_glide_rmsd>
0.100956

> <s_glide_core_constrain_type>
snapped_core_restrain
$$$$