lig_CAT-4o
                    3D
 Schrodinger Suite 2021-1.
 44 47  0  0  1  0            999 V2000
   27.1349    9.1721   21.4029 H   0  0  0  0  0  0
   27.7479   10.0208   21.1394 C   0  0  0  0  0  0
   28.9944   10.0300   21.6677 N   0  0  0  0  0  0
   29.7879   11.0830   21.3754 C   0  0  0  0  0  0
   30.7822   11.0706   21.8004 H   0  0  0  0  0  0
   29.3757   12.1508   20.5599 C   0  0  0  0  0  0
   30.1940   13.1956   20.3054 F   0  0  0  0  0  0
   28.0722   12.1332   20.0341 C   0  0  0  0  0  0
   27.7311   12.9538   19.4197 H   0  0  0  0  0  0
   27.2205   11.0490   20.3250 C   0  0  0  0  0  0
   25.8252   11.0421   19.8499 C   0  0  0  0  0  0
   24.7679   10.8734   20.7663 C   0  0  0  0  0  0
   25.0086   10.7101   21.8027 H   0  0  0  0  0  0
   23.4099   10.9537   20.3734 C   0  0  0  0  0  0
   22.2993   10.8173   21.4318 C   0  0  2  0  0  0
   20.8606   10.7022   20.8727 C   0  0  0  0  0  0
   20.3043    9.4230   20.6259 C   0  0  0  0  0  0
   20.8906    8.5273   20.7834 H   0  0  0  0  0  0
   18.9707    9.2827   20.2007 C   0  0  0  0  0  0
   18.5584    8.2987   20.0432 H   0  0  0  0  0  0
   18.1794   10.4225   19.9885 C   0  0  0  0  0  0
   17.1513   10.3168   19.6745 H   0  0  0  0  0  0
   18.7235   11.7016   20.1834 C   0  0  0  0  0  0
   18.1163   12.5769   20.0099 H   0  0  0  0  0  0
   20.0597   11.8424   20.6101 C   0  0  0  0  0  0
   20.4478   12.8395   20.7454 H   0  0  0  0  0  0
   22.4239   11.9359   22.4961 C   0  0  0  0  0  0
   22.3972   13.1444   22.2509 O   0  0  0  0  0  0
   22.5846   11.3843   23.6953 N   0  0  0  0  0  0
   22.7562   12.0547   24.9829 C   0  0  0  0  0  0
   22.0965   11.6297   25.7413 H   0  0  0  0  0  0
   23.7874   11.9577   25.3273 H   0  0  0  0  0  0
   22.5283   13.1178   24.9060 H   0  0  0  0  0  0
   22.6707   10.0260   23.5112 C   0  0  0  0  0  0
   22.8845    9.2193   24.6021 N   0  0  0  0  0  0
   22.9826    8.2128   24.4985 H   0  0  0  0  0  0
   22.5648    9.6603   22.2859 N   0  0  0  0  0  0
   23.1215   11.1697   19.0057 C   0  0  0  0  0  0
   22.1028   11.2375   18.6557 H   0  0  0  0  0  0
   24.1645   11.3119   18.0722 C   0  0  0  0  0  0
   23.9361   11.4809   17.0307 H   0  0  0  0  0  0
   25.5079   11.2581   18.4941 C   0  0  0  0  0  0
   26.2982   11.3956   17.7704 H   0  0  0  0  0  0
   22.9972    9.5195   25.5646 H   0  0  0  0  0  0
  1  2  1  0  0  0
  2 10  1  0  0  0
  2  3  2  0  0  0
  3  4  1  0  0  0
  4  5  1  0  0  0
  4  6  2  0  0  0
  6  7  1  0  0  0
  6  8  1  0  0  0
  8  9  1  0  0  0
  8 10  2  0  0  0
 10 11  1  0  0  0
 11 42  1  0  0  0
 11 12  2  0  0  0
 12 13  1  0  0  0
 12 14  1  0  0  0
 14 38  2  0  0  0
 14 15  1  0  0  0
 15 37  1  0  0  0
 15 27  1  0  0  0
 15 16  1  0  0  0
 16 25  1  0  0  0
 16 17  2  0  0  0
 17 18  1  0  0  0
 17 19  1  0  0  0
 19 20  1  0  0  0
 19 21  2  0  0  0
 21 22  1  0  0  0
 21 23  1  0  0  0
 23 24  1  0  0  0
 23 25  2  0  0  0
 25 26  1  0  0  0
 27 28  2  0  0  0
 27 29  1  0  0  0
 29 30  1  0  0  0
 29 34  1  0  0  0
 30 31  1  0  0  0
 30 32  1  0  0  0
 30 33  1  0  0  0
 34 35  1  0  0  0
 34 37  2  0  0  0
 35 36  1  0  0  0
 35 44  1  0  0  0
 38 39  1  0  0  0
 38 40  1  0  0  0
 40 41  1  0  0  0
 40 42  2  0  0  0
 42 43  1  0  0  0
M  END
> <s_m_source_file>
ligprep_bace.smi

> <i_m_source_file_index>
35

> <i_lp_mmshare_version>
53161

> <i_f3d_flags>
0

> <s_epik_input>
RmMxW2NIXW5bY0hdYyhbY0hdMSktYzJbY0hdYyhbY0hdW2NIXVtjSF0yKVtDQEBdMyhDKD1PKU4oW0NIM10pQyg9TjMpW05IMl0pYzRbY0hdW2NIXVtjSF1bY0hdW2NIXTQ=

> <s_epik_cmdline>
J2VwaWtfcHl0aG9uJywgJy1waHQnLCAnMC4wJywgJy1waCcsICc3LjQnLCAnLXRuJywgJzgnLCAnLW1hJywgJzUwMCcsICctaW1hZScsICc8aW5maWxlLm1hZT4nLCAnLW9tYWUnLCAnPG91dGZpbGUubWFlPic=

> <r_lp_tautomer_probability>
1

> <r_epik_Ionization_Penalty>
0.5024

> <r_epik_Ionization_Penalty_Charging>
0

> <r_epik_Ionization_Penalty_Neutral>
0.5024

> <r_epik_State_Penalty>
-0

> <r_epik_Charging_Adjusted_Penalty>
0

> <i_epik_Tot_Q>
0

> <i_epik_Tot_abs_Q>
0

> <s_epik_Chemistry_Notes>
This compound has an imine and may undergo hydrolysis.

> <s_lp_Force_Field>
S-OPLS

> <r_lp_Energy>
50.089

> <b_lp_Chiralities_Consistent>
1

> <s_lp_Variant>
lig_CAT-4o-1

> <s_i_glide_gridfile>
glide-grid_4DJW-BACE

> <i_i_glide_lignum>
35

> <i_i_glide_rotatable_bonds>
3

> <r_i_docking_score>
-7.08584

> <r_i_glide_ligand_efficiency>
-0.262438

> <r_i_glide_ligand_efficiency_sa>
-0.787315

> <r_i_glide_ligand_efficiency_ln>
-1.64947

> <r_i_glide_gscore>
-7.08584

> <r_i_glide_lipo>
-2.69099

> <r_i_glide_hbond>
-0.432998

> <r_i_glide_metal>
-0

> <r_i_glide_rewards>
-1.23195

> <r_i_glide_evdw>
-42.4868

> <r_i_glide_ecoul>
-6.1888

> <r_i_glide_erotb>
0.442997

> <r_i_glide_esite>
-0.120235

> <r_i_glide_emodel>
-71.9445

> <r_i_glide_energy>
-48.6756

> <r_i_glide_einternal>
1.66084e-07

> <i_i_glide_confnum>
1

> <i_i_glide_posenum>
1

> <r_i_glide_eff_state_penalty>
-0

> <r_i_glide_rmsd>
0.0893897

> <s_glide_core_constrain_type>
snapped_core_restrain
$$$$