lig_48
                    3D
 Schrodinger Suite 2021-1.
 47 50  0  0  1  0            999 V2000
   96.7213   45.9577  267.0786 H   0  0  0  0  0  0
   96.0060   46.7555  267.2139 C   0  0  0  0  0  0
   94.7393   46.5224  266.8127 N   0  0  0  0  0  0
   93.8353   47.5196  266.9640 C   0  0  0  0  0  0
   94.2080   48.7626  267.5578 C   0  0  0  0  0  0
   95.4743   48.9512  268.0135 N   0  0  0  0  0  0
   96.3730   47.9660  267.8238 C   0  0  0  0  0  0
   97.3818   48.1442  268.1629 H   0  0  0  0  0  0
   93.2425   49.7933  267.6794 C   0  0  0  0  0  0
   93.5625   51.0866  268.3002 C   0  0  0  0  0  0
   94.5692   51.9393  267.7957 C   0  0  0  0  0  0
   95.1376   51.6479  266.9271 H   0  0  0  0  0  0
   94.8367   53.1788  268.4132 C   0  0  0  0  0  0
   95.6038   53.8311  268.0202 H   0  0  0  0  0  0
   94.0971   53.5839  269.5397 C   0  0  0  0  0  0
   94.3737   54.8074  270.1048 O   0  0  0  0  0  0
   93.6530   55.1513  271.2885 C   0  0  0  0  0  0
   93.9736   56.1074  271.6750 H   0  0  0  0  0  0
   93.8319   54.4264  272.0820 H   0  0  0  0  0  0
   92.5791   55.2207  271.1019 H   0  0  0  0  0  0
   93.1110   52.7176  270.0598 C   0  0  0  0  0  0
   92.5238   52.9768  270.9303 H   0  0  0  0  0  0
   92.8442   51.4866  269.4422 C   0  0  0  0  0  0
   92.0791   50.8414  269.8442 H   0  0  0  0  0  0
   91.9227   49.5637  267.2342 C   0  0  0  0  0  0
   91.1932   50.3488  267.3428 H   0  0  0  0  0  0
   91.5415   48.3368  266.6699 C   0  0  0  0  0  0
   90.1989   48.1526  266.3110 N   0  0  0  0  0  0
   89.5108   48.6741  266.8477 H   0  0  0  0  0  0
   89.6437   47.3209  265.3270 C   0  0  0  0  0  0
   90.3749   46.9279  264.1832 C   0  0  0  0  0  0
   91.3920   47.2529  264.0320 H   0  0  0  0  0  0
   89.8779   46.1353  263.2150 N   0  0  0  0  0  0
   88.6116   45.7116  263.3152 C   0  0  0  0  0  0
   88.2572   45.0734  262.5180 H   0  0  0  0  0  0
   87.7784   46.0522  264.3845 C   0  0  0  0  0  0
   86.7683   45.6793  264.4309 H   0  0  0  0  0  0
   88.2986   46.8774  265.3983 C   0  0  0  0  0  0
   87.2250   47.2227  266.7922 S   0  0  0  0  0  0
   85.8348   47.1630  266.3173 O   0  0  0  0  0  0
   87.6920   48.4313  267.4839 O   0  0  0  0  0  0
   87.5309   45.7972  267.9051 C   0  0  0  0  0  0
   86.9127   45.8987  268.7939 H   0  0  0  0  0  0
   87.2798   44.8740  267.3818 H   0  0  0  0  0  0
   88.5834   45.7828  268.1842 H   0  0  0  0  0  0
   92.5075   47.3227  266.5323 C   0  0  0  0  0  0
   92.2302   46.3713  266.1052 H   0  0  0  0  0  0
  1  2  1  0  0  0
  2  7  1  0  0  0
  2  3  2  0  0  0
  3  4  1  0  0  0
  4 46  1  0  0  0
  4  5  2  0  0  0
  5  6  1  0  0  0
  5  9  1  0  0  0
  6  7  2  0  0  0
  7  8  1  0  0  0
  9 10  1  0  0  0
  9 25  2  0  0  0
 10 23  1  0  0  0
 10 11  2  0  0  0
 11 12  1  0  0  0
 11 13  1  0  0  0
 13 14  1  0  0  0
 13 15  2  0  0  0
 15 16  1  0  0  0
 15 21  1  0  0  0
 16 17  1  0  0  0
 17 18  1  0  0  0
 17 19  1  0  0  0
 17 20  1  0  0  0
 21 22  1  0  0  0
 21 23  2  0  0  0
 23 24  1  0  0  0
 25 26  1  0  0  0
 25 27  1  0  0  0
 27 28  1  0  0  0
 27 46  2  0  0  0
 28 29  1  0  0  0
 28 30  1  0  0  0
 30 38  1  0  0  0
 30 31  2  0  0  0
 31 32  1  0  0  0
 31 33  1  0  0  0
 33 34  2  0  0  0
 34 35  1  0  0  0
 34 36  1  0  0  0
 36 37  1  0  0  0
 36 38  2  0  0  0
 38 39  1  0  0  0
 39 40  2  0  0  0
 39 41  2  0  0  0
 39 42  1  0  0  0
 42 43  1  0  0  0
 42 44  1  0  0  0
 42 45  1  0  0  0
 46 47  1  0  0  0
M  END
> <s_m_source_file>
ligprep_pfkfb3.smi

> <i_m_source_file_index>
22

> <i_lp_mmshare_version>
53161

> <i_f3d_flags>
0

> <s_epik_input>
W0NIM11PYyhbY0hdW2NIXTEpW2NIXVtjSF1jMS1jKGMoYzIzKW5bY0hdW2NIXW4yKVtjSF1jKFtjSF0zKVtOSF1jNFtjSF1uW2NIXVtjSF1jNFMoPU8pKD1PKVtDSDNd

> <s_epik_cmdline>
J2VwaWtfcHl0aG9uJywgJy1waHQnLCAnMC4wJywgJy1waCcsICc3LjQnLCAnLXRuJywgJzgnLCAnLW1hJywgJzUwMCcsICctaW1hZScsICc8aW5maWxlLm1hZT4nLCAnLW9tYWUnLCAnPG91dGZpbGUubWFlPic=

> <r_lp_tautomer_probability>
1

> <r_epik_Ionization_Penalty>
0

> <r_epik_Ionization_Penalty_Charging>
0

> <r_epik_Ionization_Penalty_Neutral>
0

> <r_epik_State_Penalty>
-0

> <r_epik_Charging_Adjusted_Penalty>
0

> <i_epik_Tot_Q>
0

> <i_epik_Tot_abs_Q>
0

> <s_lp_Force_Field>
S-OPLS

> <r_lp_Energy>
47.7909

> <b_lp_Chiralities_Consistent>
1

> <s_lp_Variant>
lig_48-1

> <s_i_glide_gridfile>
glide-grid_6HVI-PFKFB3

> <i_i_glide_lignum>
22

> <i_i_glide_rotatable_bonds>
5

> <r_i_docking_score>
-10.0777

> <r_i_glide_ligand_efficiency>
-0.347508

> <r_i_glide_ligand_efficiency_sa>
-1.06765

> <r_i_glide_ligand_efficiency_ln>
-2.30754

> <r_i_glide_gscore>
-10.0777

> <r_i_glide_lipo>
-5.48225

> <r_i_glide_hbond>
-0.32

> <r_i_glide_metal>
-0

> <r_i_glide_rewards>
-1.02704

> <r_i_glide_evdw>
-56.9108

> <r_i_glide_ecoul>
-6.14394

> <r_i_glide_erotb>
0.595081

> <r_i_glide_esite>
-0.0763851

> <r_i_glide_emodel>
-95.9732

> <r_i_glide_energy>
-63.0547

> <r_i_glide_einternal>
5.80077

> <i_i_glide_confnum>
9

> <i_i_glide_posenum>
3

> <r_i_glide_eff_state_penalty>
-0

> <r_i_glide_rmsd>
0.0835442

> <s_glide_core_constrain_type>
snapped_core_restrain
$$$$