lig_CHEMBL3265028
                    3D
 Schrodinger Suite 2021-1.
 43 47  0  0  1  0            999 V2000
    1.2800    5.1796    8.2360 H   0  0  0  0  0  0
    0.9881    4.6374    9.1226 C   0  0  0  0  0  0
   -0.2600    4.6774    9.5263 N   0  0  0  0  0  0
   -0.2979    3.9341   10.6607 N   0  0  0  0  0  0
   -1.1573    3.8394   11.1815 H   0  0  0  0  0  0
    0.9204    3.3788   11.0042 C   0  0  0  0  0  0
    1.3468    2.5465   12.0505 C   0  0  0  0  0  0
    0.6403    2.2335   12.8047 H   0  0  0  0  0  0
    2.6933    2.1263   12.1102 C   0  0  0  0  0  0
    3.1560    1.2322   13.1901 C   0  0  0  0  0  0
    4.4313    1.3274   13.6855 C   0  0  0  0  0  0
    5.1755    2.0419   13.3503 H   0  0  0  0  0  0
    4.7612    0.5192   14.7194 N   0  0  0  0  0  0
    3.8420   -0.4058   15.2668 C   0  0  0  0  0  0
    4.3964   -1.0449   16.2973 N   0  0  0  0  0  0
    5.6653   -0.4946   16.4399 C   0  0  0  0  0  0
    6.3048   -0.8043   17.2480 H   0  0  0  0  0  0
    5.9191    0.4213   15.4614 C   0  0  0  0  0  0
    6.7743    1.0427   15.2371 H   0  0  0  0  0  0
    2.5502   -0.4513   14.6649 C   0  0  0  0  0  0
    1.6226   -1.3523   15.2175 N   0  0  0  0  0  0
    2.0294   -1.8957   15.9695 H   0  0  0  0  0  0
    0.2468   -1.5676   15.0140 C   0  0  0  0  0  0
   -0.3407   -2.6178   15.7506 C   0  0  0  0  0  0
    0.2593   -3.2136   16.4250 H   0  0  0  0  0  0
   -1.7134   -2.8987   15.6365 C   0  0  0  0  0  0
   -2.1462   -3.7051   16.2123 H   0  0  0  0  0  0
   -2.5217   -2.1204   14.7891 C   0  0  0  0  0  0
   -3.5780   -2.3347   14.7201 H   0  0  0  0  0  0
   -1.9670   -1.0645   14.0415 C   0  0  0  0  0  0
   -2.8340   -0.3489   13.2414 O   0  0  0  0  0  0
   -2.2885    0.6340   12.3703 C   0  0  0  0  0  0
   -3.0838    1.0470   11.7485 H   0  0  0  0  0  0
   -1.8474    1.4596   12.9308 H   0  0  0  0  0  0
   -1.5397    0.2100   11.6990 H   0  0  0  0  0  0
   -0.5781   -0.7970   14.1571 C   0  0  0  0  0  0
   -0.1575    0.0167   13.5970 H   0  0  0  0  0  0
    2.2319    0.3261   13.6691 N   0  0  0  0  0  0
    3.5865    2.5932   11.1133 C   0  0  0  0  0  0
    4.6205    2.2852   11.1295 H   0  0  0  0  0  0
    3.1528    3.4356   10.0689 C   0  0  0  0  0  0
    3.8534    3.7689    9.3174 H   0  0  0  0  0  0
    1.8012    3.8383    9.9899 C   0  0  0  0  0  0
  1  2  1  0  0  0
  2 43  1  0  0  0
  2  3  2  0  0  0
  3  4  1  0  0  0
  4  5  1  0  0  0
  4  6  1  0  0  0
  6 43  2  0  0  0
  6  7  1  0  0  0
  7  8  1  0  0  0
  7  9  2  0  0  0
  9 10  1  0  0  0
  9 39  1  0  0  0
 10 38  1  0  0  0
 10 11  2  0  0  0
 11 12  1  0  0  0
 11 13  1  0  0  0
 13 18  1  0  0  0
 13 14  1  0  0  0
 14 15  2  0  0  0
 14 20  1  0  0  0
 15 16  1  0  0  0
 16 17  1  0  0  0
 16 18  2  0  0  0
 18 19  1  0  0  0
 20 21  1  0  0  0
 20 38  2  0  0  0
 21 22  1  0  0  0
 21 23  1  0  0  0
 23 36  1  0  0  0
 23 24  2  0  0  0
 24 25  1  0  0  0
 24 26  1  0  0  0
 26 27  1  0  0  0
 26 28  2  0  0  0
 28 29  1  0  0  0
 28 30  1  0  0  0
 30 31  1  0  0  0
 30 36  2  0  0  0
 31 32  1  0  0  0
 32 33  1  0  0  0
 32 34  1  0  0  0
 32 35  1  0  0  0
 36 37  1  0  0  0
 39 40  1  0  0  0
 39 41  2  0  0  0
 41 42  1  0  0  0
 41 43  1  0  0  0
M  END
> <s_m_source_file>
ligprep_syk.smi

> <i_m_source_file_index>
35

> <i_lp_mmshare_version>
53161

> <i_f3d_flags>
0

> <s_epik_input>
W25IXTFuW2NIXWMoYzEyKVtjSF1bY0hdYyhbY0hdMiktYyhbY0hdMyluYyhjKG4zNCluW2NIXVtjSF00KVtOSF1jNVtjSF1bY0hdW2NIXWMoW2NIXTUpT1tDSDNd

> <s_epik_cmdline>
J2VwaWtfcHl0aG9uJywgJy1waHQnLCAnMC4wJywgJy1waCcsICc3LjQnLCAnLXRuJywgJzgnLCAnLW1hJywgJzUwMCcsICctaW1hZScsICc8aW5maWxlLm1hZT4nLCAnLW9tYWUnLCAnPG91dGZpbGUubWFlPic=

> <r_lp_tautomer_probability>
1

> <r_epik_Ionization_Penalty>
0.0009

> <r_epik_Ionization_Penalty_Charging>
0.0009

> <r_epik_Ionization_Penalty_Neutral>
0

> <r_epik_State_Penalty>
-0

> <r_epik_Charging_Adjusted_Penalty>
0.000851558

> <i_epik_Tot_Q>
0

> <i_epik_Tot_abs_Q>
0

> <s_lp_Force_Field>
S-OPLS

> <r_lp_Energy>
38.6103

> <b_lp_Chiralities_Consistent>
1

> <s_lp_Variant>
lig_CHEMBL3265028-1

> <s_i_glide_gridfile>
glide-grid_4PV0-SYK

> <i_i_glide_lignum>
35

> <i_i_glide_rotatable_bonds>
4

> <r_i_docking_score>
-8.01591

> <r_i_glide_ligand_efficiency>
-0.296886

> <r_i_glide_ligand_efficiency_sa>
-0.890657

> <r_i_glide_ligand_efficiency_ln>
-1.86597

> <r_i_glide_gscore>
-8.01591

> <r_i_glide_lipo>
-2.82511

> <r_i_glide_hbond>
-0.341387

> <r_i_glide_metal>
-0

> <r_i_glide_rewards>
-2.40095

> <r_i_glide_evdw>
-43.7742

> <r_i_glide_ecoul>
-5.72174

> <r_i_glide_erotb>
0.602538

> <r_i_glide_esite>
-0.00403713

> <r_i_glide_emodel>
-76.5703

> <r_i_glide_energy>
-49.4959

> <r_i_glide_einternal>
-3.50855e-07

> <i_i_glide_confnum>
1

> <i_i_glide_posenum>
2

> <r_i_glide_eff_state_penalty>
-0

> <r_i_glide_rmsd>
0.0687359

> <s_glide_core_constrain_type>
snapped_core_restrain
$$$$