lig_E23
                    3D
 Schrodinger Suite 2021-1.
 43 45  0  0  1  0            999 V2000
   16.6526   39.2672    4.6393 H   0  0  0  0  0  0
   17.4283   39.6956    5.2555 C   0  0  0  0  0  0
   17.1891   39.9604    6.6168 C   0  0  0  0  0  0
   16.2286   39.7304    7.0551 H   0  0  0  0  0  0
   18.2153   40.4851    7.4198 C   0  0  0  0  0  0
   17.9286   40.7608    9.0961 Cl  0  0  0  0  0  0
   19.4700   40.7879    6.8568 C   0  0  0  0  0  0
   20.6603   41.5600    7.8426 Cl  0  0  0  0  0  0
   19.7249   40.5085    5.4927 C   0  0  0  0  0  0
   21.0217   40.7979    4.8666 C   0  0  0  0  0  0
   20.9862   41.7921    3.9658 N   0  0  0  0  0  0
   22.1007   42.0376    3.2535 C   0  0  0  0  0  0
   21.8097   43.1608    1.9754 Cl  0  0  0  0  0  0
   23.3187   41.3198    3.4620 C   0  0  0  0  0  0
   24.4921   41.4753    2.6758 N   0  0  0  0  0  0
   25.6091   40.5267    2.7640 C   0  0  0  0  0  0
   25.9101   40.2722    1.7475 H   0  0  0  0  0  0
   25.3213   39.5783    3.2182 H   0  0  0  0  0  0
   26.8094   41.1407    3.5225 C   0  0  0  0  0  0
   27.6491   40.4441    3.5006 H   0  0  0  0  0  0
   26.5275   41.2404    4.5714 H   0  0  0  0  0  0
   27.2395   42.5230    2.9633 C   0  0  0  0  0  0
   27.9299   42.4001    1.5883 C   0  0  0  0  0  0
   28.8488   41.8158    1.6580 H   0  0  0  0  0  0
   28.1963   43.3799    1.1881 H   0  0  0  0  0  0
   27.3000   41.9098    0.8468 H   0  0  0  0  0  0
   28.1989   43.1608    3.8872 N   0  3  0  0  0  0
   29.0551   42.6222    3.9142 H   0  0  0  0  0  0
   28.4030   44.0953    3.5546 H   0  0  0  0  0  0
   25.9875   43.4138    2.8601 C   0  0  0  0  0  0
   25.6135   43.6521    3.8571 H   0  0  0  0  0  0
   26.2373   44.3666    2.3950 H   0  0  0  0  0  0
   24.8687   42.7449    2.0628 C   0  0  0  0  0  0
   25.1737   42.5651    1.0329 H   0  0  0  0  0  0
   24.1113   43.5058    2.0144 H   0  0  0  0  0  0
   23.3517   40.3593    4.4218 N   0  0  0  0  0  0
   22.2158   40.0790    5.0972 C   0  0  0  0  0  0
   22.2640   39.0279    6.0069 N   0  0  0  0  0  0
   21.4613   38.7648    6.5580 H   0  0  0  0  0  0
   23.1305   38.5405    6.2140 H   0  0  0  0  0  0
   18.6913   39.9615    4.6982 C   0  0  0  0  0  0
   18.8681   39.7460    3.6538 H   0  0  0  0  0  0
   27.8120   43.2214    4.8195 H   0  0  0  0  0  0
  1  2  1  0  0  0
  2 41  1  0  0  0
  2  3  2  0  0  0
  3  4  1  0  0  0
  3  5  1  0  0  0
  5  6  1  0  0  0
  5  7  2  0  0  0
  7  8  1  0  0  0
  7  9  1  0  0  0
  9 10  1  0  0  0
  9 41  2  0  0  0
 10 37  1  0  0  0
 10 11  2  0  0  0
 11 12  1  0  0  0
 12 13  1  0  0  0
 12 14  2  0  0  0
 14 15  1  0  0  0
 14 36  1  0  0  0
 15 33  1  0  0  0
 15 16  1  0  0  0
 16 17  1  0  0  0
 16 18  1  0  0  0
 16 19  1  0  0  0
 19 20  1  0  0  0
 19 21  1  0  0  0
 19 22  1  0  0  0
 22 23  1  0  0  0
 22 27  1  0  0  0
 22 30  1  0  0  0
 23 24  1  0  0  0
 23 25  1  0  0  0
 23 26  1  0  0  0
 27 28  1  0  0  0
 27 29  1  0  0  0
 27 43  1  0  0  0
 30 31  1  0  0  0
 30 32  1  0  0  0
 30 33  1  0  0  0
 33 34  1  0  0  0
 33 35  1  0  0  0
 36 37  2  0  0  0
 37 38  1  0  0  0
 38 39  1  0  0  0
 38 40  1  0  0  0
 41 42  1  0  0  0
M  CHG  1  27   1
M  END
> <s_m_source_file>
ligprep_shp2.smi

> <i_m_source_file_index>
11

> <i_lp_mmshare_version>
53161

> <i_f3d_flags>
0

> <s_epik_input>
Q2xjMVtjSF1bY0hdW2NIXWMoYzFDbCktYzJuYyhDbCljKG5jMltOSDJdKU4oW0NIMl1bQ0gyXTMpW0NIMl1bQ0gyXUMzKFtDSDNdKVtOSDJd

> <s_epik_cmdline>
J2VwaWtfcHl0aG9uJywgJy1waHQnLCAnMC4wJywgJy1waCcsICc3LjQnLCAnLXRuJywgJzgnLCAnLW1hJywgJzUwMCcsICctaW1hZScsICc8aW5maWxlLm1hZT4nLCAnLW9tYWUnLCAnPG91dGZpbGUubWFlPic=

> <r_lp_tautomer_probability>
1

> <r_epik_Ionization_Penalty>
0.013

> <r_epik_Ionization_Penalty_Charging>
0.013

> <r_epik_Ionization_Penalty_Neutral>
0

> <r_epik_State_Penalty>
-0

> <r_epik_Charging_Adjusted_Penalty>
0.0130287

> <i_epik_Tot_Q>
1

> <i_epik_Tot_abs_Q>
1

> <s_lp_Force_Field>
S-OPLS

> <r_lp_Energy>
45.2799

> <b_lp_Chiralities_Consistent>
1

> <s_lp_Variant>
lig_E23-1

> <s_i_glide_gridfile>
glide-grid_5EHR-SHP2

> <i_i_glide_lignum>
11

> <i_i_glide_rotatable_bonds>
2

> <r_i_docking_score>
-8.90933

> <r_i_glide_ligand_efficiency>
-0.371222

> <r_i_glide_ligand_efficiency_sa>
-1.07079

> <r_i_glide_ligand_efficiency_ln>
-2.13241

> <r_i_glide_gscore>
-8.90933

> <r_i_glide_lipo>
-3.26895

> <r_i_glide_hbond>
-0.458513

> <r_i_glide_metal>
-0

> <r_i_glide_rewards>
-1.04618

> <r_i_glide_evdw>
-50.0956

> <r_i_glide_ecoul>
-12.6003

> <r_i_glide_erotb>
0.259131

> <r_i_glide_esite>
0

> <r_i_glide_emodel>
-107.848

> <r_i_glide_energy>
-62.6959

> <r_i_glide_einternal>
2.96396e-07

> <i_i_glide_confnum>
1

> <i_i_glide_posenum>
2

> <r_i_glide_eff_state_penalty>
-0

> <r_i_glide_rmsd>
0.0965971

> <s_glide_core_constrain_type>
snapped_core_restrain
$$$$