lig_CHEMBL3265013
                    3D
 Schrodinger Suite 2021-1.
 51 54  0  0  1  0            999 V2000
    6.2715   -0.8108   17.2250 H   0  0  0  0  0  0
    5.6442   -0.5088   16.4120 C   0  0  0  0  0  0
    5.8995    0.4060   15.4316 C   0  0  0  0  0  0
    6.7541    1.0255   15.2026 H   0  0  0  0  0  0
    4.7419    0.5074   14.6886 N   0  0  0  0  0  0
    3.8254   -0.4163   15.2387 C   0  0  0  0  0  0
    4.3756   -1.0523   16.2697 N   0  0  0  0  0  0
    2.5289   -0.4431   14.6476 C   0  0  0  0  0  0
    1.6072   -1.3592   15.1901 N   0  0  0  0  0  0
    2.0226   -1.9264   15.9223 H   0  0  0  0  0  0
    0.2280   -1.5743   14.9868 C   0  0  0  0  0  0
   -0.3656   -2.6164   15.7274 C   0  0  0  0  0  0
    0.2206   -3.2085   16.4118 H   0  0  0  0  0  0
   -1.7411   -2.8866   15.6085 C   0  0  0  0  0  0
   -2.1889   -3.6756   16.1897 H   0  0  0  0  0  0
   -2.5440   -2.1178   14.7450 C   0  0  0  0  0  0
   -3.8852   -2.3798   14.6598 O   0  0  0  0  0  0
   -4.2284   -3.1496   13.5187 C   0  0  0  0  0  0
   -5.3050   -3.3239   13.5135 H   0  0  0  0  0  0
   -3.9562   -2.6328   12.5963 H   0  0  0  0  0  0
   -3.7283   -4.1207   13.5330 H   0  0  0  0  0  0
   -1.9773   -1.0654   13.9937 C   0  0  0  0  0  0
   -2.8179   -0.3342   13.1796 O   0  0  0  0  0  0
   -2.2357    0.6578   12.3417 C   0  0  0  0  0  0
   -2.9992    1.1065   11.7029 H   0  0  0  0  0  0
   -1.7908    1.4539   12.9420 H   0  0  0  0  0  0
   -1.4710    0.2358   11.6842 H   0  0  0  0  0  0
   -0.5886   -0.8063   14.1253 C   0  0  0  0  0  0
   -0.1595    0.0083   13.5707 H   0  0  0  0  0  0
    2.2087    0.3390   13.6528 N   0  0  0  0  0  0
    3.1300    1.2438   13.1674 C   0  0  0  0  0  0
    2.6625    2.1571   12.1041 C   0  0  0  0  0  0
    3.5554    2.6648   11.1343 C   0  0  0  0  0  0
    4.5950    2.3770   11.1440 H   0  0  0  0  0  0
    3.1079    3.5398   10.1244 C   0  0  0  0  0  0
    3.8197    3.8951    9.3935 H   0  0  0  0  0  0
    1.7514    3.9180   10.0548 C   0  0  0  0  0  0
    1.2773    4.8404    8.9662 C   0  0  0  0  0  0
    0.3214    4.5547    8.2365 O   0  0  0  0  0  0
    1.9466    5.9944    8.8584 N   0  0  0  0  0  0
    2.6958    6.2269    9.4965 H   0  0  0  0  0  0
    1.6482    6.6612    8.1584 H   0  0  0  0  0  0
    0.8448    3.3986   11.0062 C   0  0  0  0  0  0
   -0.6307    3.7332   10.9536 C   0  0  0  0  0  0
   -1.1467    3.3495   11.8381 H   0  0  0  0  0  0
   -0.8047    4.8151   10.9199 H   0  0  0  0  0  0
   -1.1148    3.2893   10.0747 H   0  0  0  0  0  0
    1.3076    2.5459   12.0272 C   0  0  0  0  0  0
    0.6079    2.1786   12.7587 H   0  0  0  0  0  0
    4.4134    1.3217   13.6564 C   0  0  0  0  0  0
    5.1554    2.0381   13.3228 H   0  0  0  0  0  0
  1  2  1  0  0  0
  2  7  1  0  0  0
  2  3  2  0  0  0
  3  4  1  0  0  0
  3  5  1  0  0  0
  5 50  1  0  0  0
  5  6  1  0  0  0
  6  7  2  0  0  0
  6  8  1  0  0  0
  8  9  1  0  0  0
  8 30  2  0  0  0
  9 10  1  0  0  0
  9 11  1  0  0  0
 11 28  1  0  0  0
 11 12  2  0  0  0
 12 13  1  0  0  0
 12 14  1  0  0  0
 14 15  1  0  0  0
 14 16  2  0  0  0
 16 17  1  0  0  0
 16 22  1  0  0  0
 17 18  1  0  0  0
 18 19  1  0  0  0
 18 20  1  0  0  0
 18 21  1  0  0  0
 22 23  1  0  0  0
 22 28  2  0  0  0
 23 24  1  0  0  0
 24 25  1  0  0  0
 24 26  1  0  0  0
 24 27  1  0  0  0
 28 29  1  0  0  0
 30 31  1  0  0  0
 31 32  1  0  0  0
 31 50  2  0  0  0
 32 48  1  0  0  0
 32 33  2  0  0  0
 33 34  1  0  0  0
 33 35  1  0  0  0
 35 36  1  0  0  0
 35 37  2  0  0  0
 37 38  1  0  0  0
 37 43  1  0  0  0
 38 39  2  0  0  0
 38 40  1  0  0  0
 40 41  1  0  0  0
 40 42  1  0  0  0
 43 44  1  0  0  0
 43 48  2  0  0  0
 44 45  1  0  0  0
 44 46  1  0  0  0
 44 47  1  0  0  0
 48 49  1  0  0  0
 50 51  1  0  0  0
M  END
> <s_m_source_file>
ligprep_syk.smi

> <i_m_source_file_index>
20

> <i_lp_mmshare_version>
53161

> <i_f3d_flags>
0

> <s_epik_input>
Tz1DKFtOSDJdKWMoYyhbQ0gzXSlbY0hdMSlbY0hdW2NIXWMxLWMoW2NIXTIpbmMoYyhuMjMpbltjSF1bY0hdMylbTkhdYzRbY0hdW2NIXWMoT1tDSDNdKWMoW2NIXTQpT1tDSDNd

> <s_epik_cmdline>
J2VwaWtfcHl0aG9uJywgJy1waHQnLCAnMC4wJywgJy1waCcsICc3LjQnLCAnLXRuJywgJzgnLCAnLW1hJywgJzUwMCcsICctaW1hZScsICc8aW5maWxlLm1hZT4nLCAnLW9tYWUnLCAnPG91dGZpbGUubWFlPic=

> <r_lp_tautomer_probability>
1

> <r_epik_Ionization_Penalty>
0.0012

> <r_epik_Ionization_Penalty_Charging>
0.0012

> <r_epik_Ionization_Penalty_Neutral>
0

> <r_epik_State_Penalty>
-0

> <r_epik_Charging_Adjusted_Penalty>
0.00122647

> <i_epik_Tot_Q>
0

> <i_epik_Tot_abs_Q>
0

> <s_lp_Force_Field>
S-OPLS

> <r_lp_Energy>
40.7686

> <b_lp_Chiralities_Consistent>
1

> <s_lp_Variant>
lig_CHEMBL3265013-1

> <s_i_glide_gridfile>
glide-grid_4PV0-SYK

> <i_i_glide_lignum>
20

> <i_i_glide_rotatable_bonds>
6

> <r_i_docking_score>
-7.71719

> <r_i_glide_ligand_efficiency>
-0.25724

> <r_i_glide_ligand_efficiency_sa>
-0.799304

> <r_i_glide_ligand_efficiency_ln>
-1.75343

> <r_i_glide_gscore>
-7.71719

> <r_i_glide_lipo>
-2.7172

> <r_i_glide_hbond>
-0.319856

> <r_i_glide_metal>
-0

> <r_i_glide_rewards>
-2.25135

> <r_i_glide_evdw>
-44.9539

> <r_i_glide_ecoul>
-6.03246

> <r_i_glide_erotb>
0.723773

> <r_i_glide_esite>
0

> <r_i_glide_emodel>
-73.2954

> <r_i_glide_energy>
-50.9864

> <r_i_glide_einternal>
0.316712

> <i_i_glide_confnum>
4

> <i_i_glide_posenum>
1

> <r_i_glide_eff_state_penalty>
-0

> <r_i_glide_rmsd>
0.0839671

> <s_glide_core_constrain_type>
snapped_core_restrain
$$$$