lig_CHEMBL3265022
                    3D
 Schrodinger Suite 2021-1.
 50 54  0  0  1  0            999 V2000
    1.4402    5.2594    8.2239 H   0  0  0  0  0  0
    1.1039    4.7249    9.0982 C   0  0  0  0  0  0
   -0.1505    4.8109    9.4654 N   0  0  0  0  0  0
   -0.2578    4.0628   10.5940 N   0  0  0  0  0  0
   -1.5479    4.0025   11.2428 C   0  0  0  0  0  0
   -1.6274    3.0866   11.8148 H   0  0  0  0  0  0
   -1.6600    4.8505   11.9164 H   0  0  0  0  0  0
   -2.3454    4.0252   10.5005 H   0  0  0  0  0  0
    0.9377    3.4583   10.9683 C   0  0  0  0  0  0
    1.3253    2.6075   12.0223 C   0  0  0  0  0  0
    0.6027    2.3141   12.7689 H   0  0  0  0  0  0
    2.6603    2.1467   12.1070 C   0  0  0  0  0  0
    3.1105    1.2512   13.1943 C   0  0  0  0  0  0
    4.3948    1.3333   13.6765 C   0  0  0  0  0  0
    5.1466    2.0352   13.3312 H   0  0  0  0  0  0
    4.7326    0.5186   14.7015 N   0  0  0  0  0  0
    3.8176   -0.4070   15.2516 C   0  0  0  0  0  0
    4.3767   -1.0536   16.2737 N   0  0  0  0  0  0
    5.6432   -0.5012   16.4179 C   0  0  0  0  0  0
    6.2810   -0.8069   17.2302 H   0  0  0  0  0  0
    5.8949    0.4136   15.4372 C   0  0  0  0  0  0
    6.7499    1.0345   15.2130 H   0  0  0  0  0  0
    2.5196   -0.4448   14.6639 C   0  0  0  0  0  0
    1.6058   -1.3599   15.2217 N   0  0  0  0  0  0
    2.0301   -1.9251   15.9481 H   0  0  0  0  0  0
    0.2306   -1.5929   15.0337 C   0  0  0  0  0  0
   -0.3488   -2.6271   15.7980 C   0  0  0  0  0  0
    0.2601   -3.2016   16.4824 H   0  0  0  0  0  0
   -1.7221   -2.9168   15.6973 C   0  0  0  0  0  0
   -2.1464   -3.7056   16.3005 H   0  0  0  0  0  0
   -2.5390   -2.1828   14.8194 C   0  0  0  0  0  0
   -3.8762   -2.4750   14.7442 O   0  0  0  0  0  0
   -4.2372   -3.1811   13.5675 C   0  0  0  0  0  0
   -5.3130   -3.3556   13.5641 H   0  0  0  0  0  0
   -3.9875   -2.6360   12.6562 H   0  0  0  0  0  0
   -3.7400   -4.1508   13.5369 H   0  0  0  0  0  0
   -1.9873   -1.1360   14.0501 C   0  0  0  0  0  0
   -2.8473   -0.4324   13.2326 O   0  0  0  0  0  0
   -2.2884    0.5838   12.4174 C   0  0  0  0  0  0
   -3.0760    1.0485   11.8240 H   0  0  0  0  0  0
   -1.8416    1.3465   13.0515 H   0  0  0  0  0  0
   -1.5429    0.1761   11.7343 H   0  0  0  0  0  0
   -0.6012   -0.8503   14.1648 C   0  0  0  0  0  0
   -0.1784   -0.0444   13.5946 H   0  0  0  0  0  0
    2.1865    0.3492   13.6831 N   0  0  0  0  0  0
    3.5790    2.5791   11.1206 C   0  0  0  0  0  0
    4.6028    2.2409   11.1523 H   0  0  0  0  0  0
    3.1900    3.4336   10.0724 C   0  0  0  0  0  0
    3.9166    3.7392    9.3346 H   0  0  0  0  0  0
    1.8582    3.8872    9.9755 C   0  0  0  0  0  0
  1  2  1  0  0  0
  2 50  1  0  0  0
  2  3  2  0  0  0
  3  4  1  0  0  0
  4  5  1  0  0  0
  4  9  1  0  0  0
  5  6  1  0  0  0
  5  7  1  0  0  0
  5  8  1  0  0  0
  9 50  2  0  0  0
  9 10  1  0  0  0
 10 11  1  0  0  0
 10 12  2  0  0  0
 12 13  1  0  0  0
 12 46  1  0  0  0
 13 45  1  0  0  0
 13 14  2  0  0  0
 14 15  1  0  0  0
 14 16  1  0  0  0
 16 21  1  0  0  0
 16 17  1  0  0  0
 17 18  2  0  0  0
 17 23  1  0  0  0
 18 19  1  0  0  0
 19 20  1  0  0  0
 19 21  2  0  0  0
 21 22  1  0  0  0
 23 24  1  0  0  0
 23 45  2  0  0  0
 24 25  1  0  0  0
 24 26  1  0  0  0
 26 43  1  0  0  0
 26 27  2  0  0  0
 27 28  1  0  0  0
 27 29  1  0  0  0
 29 30  1  0  0  0
 29 31  2  0  0  0
 31 32  1  0  0  0
 31 37  1  0  0  0
 32 33  1  0  0  0
 33 34  1  0  0  0
 33 35  1  0  0  0
 33 36  1  0  0  0
 37 38  1  0  0  0
 37 43  2  0  0  0
 38 39  1  0  0  0
 39 40  1  0  0  0
 39 41  1  0  0  0
 39 42  1  0  0  0
 43 44  1  0  0  0
 46 47  1  0  0  0
 46 48  2  0  0  0
 48 49  1  0  0  0
 48 50  1  0  0  0
M  END
> <s_m_source_file>
ligprep_syk.smi

> <i_m_source_file_index>
29

> <i_lp_mmshare_version>
53161

> <i_f3d_flags>
0

> <s_epik_input>
W0NIM11uMW5bY0hdYyhjMTIpW2NIXVtjSF1jKFtjSF0yKS1jKFtjSF0zKW5jKGMobjM0KW5bY0hdW2NIXTQpW05IXWM1W2NIXVtjSF1jKE9bQ0gzXSljKFtjSF01KU9bQ0gzXQ==

> <s_epik_cmdline>
J2VwaWtfcHl0aG9uJywgJy1waHQnLCAnMC4wJywgJy1waCcsICc3LjQnLCAnLXRuJywgJzgnLCAnLW1hJywgJzUwMCcsICctaW1hZScsICc8aW5maWxlLm1hZT4nLCAnLW9tYWUnLCAnPG91dGZpbGUubWFlPic=

> <r_lp_tautomer_probability>
1

> <r_epik_Ionization_Penalty>
0.0009

> <r_epik_Ionization_Penalty_Charging>
0.0009

> <r_epik_Ionization_Penalty_Neutral>
0

> <r_epik_State_Penalty>
-0

> <r_epik_Charging_Adjusted_Penalty>
0.000851558

> <i_epik_Tot_Q>
0

> <i_epik_Tot_abs_Q>
0

> <s_lp_Force_Field>
S-OPLS

> <r_lp_Energy>
44.3348

> <b_lp_Chiralities_Consistent>
1

> <s_lp_Variant>
lig_CHEMBL3265022-1

> <s_i_glide_gridfile>
glide-grid_4PV0-SYK

> <i_i_glide_lignum>
29

> <i_i_glide_rotatable_bonds>
5

> <r_i_docking_score>
-7.81381

> <r_i_glide_ligand_efficiency>
-0.26046

> <r_i_glide_ligand_efficiency_sa>
-0.80931

> <r_i_glide_ligand_efficiency_ln>
-1.77538

> <r_i_glide_gscore>
-7.81381

> <r_i_glide_lipo>
-2.82424

> <r_i_glide_hbond>
-0.324836

> <r_i_glide_metal>
-0

> <r_i_glide_rewards>
-2.09247

> <r_i_glide_evdw>
-46.995

> <r_i_glide_ecoul>
-5.5477

> <r_i_glide_erotb>
0.611308

> <r_i_glide_esite>
-0.00165171

> <r_i_glide_emodel>
-83.5526

> <r_i_glide_energy>
-52.5427

> <r_i_glide_einternal>
-9.40154e-07

> <i_i_glide_confnum>
1

> <i_i_glide_posenum>
1

> <r_i_glide_eff_state_penalty>
-0

> <r_i_glide_rmsd>
0.0802739

> <s_glide_core_constrain_type>
snapped_core_restrain
$$$$