lig_20
                    3D
 Schrodinger Suite 2021-1.
 46 49  0  0  1  0            999 V2000
   29.4074   16.3120    8.1726 H   0  0  0  0  0  0
   28.9433   16.9461    8.9123 C   0  0  0  0  0  0
   29.5894   18.1396    9.2872 C   0  0  0  0  0  0
   30.7652   18.4990    8.7160 F   0  0  0  0  0  0
   28.9980   18.9974   10.2328 C   0  0  0  0  0  0
   29.4907   19.9209   10.5028 H   0  0  0  0  0  0
   27.7604   18.6565   10.8002 C   0  0  0  0  0  0
   27.0281   19.7358   11.9311 Cl  0  0  0  0  0  0
   27.1137   17.4621   10.4171 C   0  0  0  0  0  0
   26.1497   17.2243   10.8512 H   0  0  0  0  0  0
   27.6884   16.5888    9.4598 C   0  0  0  0  0  0
   26.9904   15.3584    9.0233 C   0  0  0  0  0  0
   27.7026   14.1673    8.7678 C   0  0  0  0  0  0
   28.7709   14.1287    8.9125 H   0  0  0  0  0  0
   27.0365   13.0069    8.3311 C   0  0  0  0  0  0
   27.6009   12.1040    8.1514 H   0  0  0  0  0  0
   25.6397   13.0035    8.1416 C   0  0  0  0  0  0
   25.0450   11.8206    7.7454 O   0  0  0  0  0  0
   23.6361   11.6794    7.9578 C   0  0  0  0  0  0
   23.3557   11.4283    9.4569 C   0  0  0  0  0  0
   22.2858   11.3626    9.6524 H   0  0  0  0  0  0
   23.8014   10.4894    9.7847 H   0  0  0  0  0  0
   23.7589   12.2130   10.0997 H   0  0  0  0  0  0
   23.2104   10.4410    7.1540 C   0  0  0  0  0  0
   22.1461   10.2389    7.2792 H   0  0  0  0  0  0
   23.4052   10.5744    6.0893 H   0  0  0  0  0  0
   23.7608    9.5600    7.4803 H   0  0  0  0  0  0
   22.9075   12.9197    7.4069 C   0  0  0  0  0  0
   21.8255   12.8197    7.5259 H   0  0  0  0  0  0
   23.0991   12.9515    6.3348 H   0  0  0  0  0  0
   23.4016   14.2401    8.0332 C   0  0  1  0  0  0
   23.0247   15.4374    7.1407 C   0  0  0  0  0  0
   23.4637   15.6262    6.0028 O   0  0  0  0  0  0
   22.1752   16.2111    7.8100 N   0  0  0  0  0  0
   21.5992   17.4853    7.3916 C   0  0  0  0  0  0
   21.9529   17.8049    6.4076 H   0  0  0  0  0  0
   20.5101   17.4265    7.3652 H   0  0  0  0  0  0
   21.8710   18.2466    8.1184 H   0  0  0  0  0  0
   21.9678   15.6344    9.0452 C   0  0  0  0  0  0
   21.1154   16.2636    9.9317 N   0  0  0  0  0  0
   21.0536   15.9850   10.9117 H   0  0  0  0  0  0
   22.6268   14.5497    9.2264 N   0  0  0  0  0  0
   24.9083   14.2032    8.3392 C   0  0  0  0  0  0
   25.5906   15.3546    8.8066 C   0  0  0  0  0  0
   25.0281   16.2641    8.9774 H   0  0  0  0  0  0
   20.6838   17.1707    9.7904 H   0  0  0  0  0  0
  1  2  1  0  0  0
  2 11  1  0  0  0
  2  3  2  0  0  0
  3  4  1  0  0  0
  3  5  1  0  0  0
  5  6  1  0  0  0
  5  7  2  0  0  0
  7  8  1  0  0  0
  7  9  1  0  0  0
  9 10  1  0  0  0
  9 11  2  0  0  0
 11 12  1  0  0  0
 12 44  1  0  0  0
 12 13  2  0  0  0
 13 14  1  0  0  0
 13 15  1  0  0  0
 15 16  1  0  0  0
 15 17  2  0  0  0
 17 43  1  0  0  0
 17 18  1  0  0  0
 18 19  1  0  0  0
 19 20  1  0  0  0
 19 24  1  0  0  0
 19 28  1  0  0  0
 20 21  1  0  0  0
 20 22  1  0  0  0
 20 23  1  0  0  0
 24 25  1  0  0  0
 24 26  1  0  0  0
 24 27  1  0  0  0
 28 29  1  0  0  0
 28 30  1  0  0  0
 28 31  1  0  0  0
 31 42  1  0  0  0
 31 32  1  0  0  0
 31 43  1  0  0  0
 32 33  2  0  0  0
 32 34  1  0  0  0
 34 35  1  0  0  0
 34 39  1  0  0  0
 35 36  1  0  0  0
 35 37  1  0  0  0
 35 38  1  0  0  0
 39 40  1  0  0  0
 39 42  2  0  0  0
 40 41  1  0  0  0
 40 46  1  0  0  0
 43 44  2  0  0  0
 44 45  1  0  0  0
M  END
> <s_m_source_file>
ligprep_bace_hunt.smi

> <i_m_source_file_index>
11

> <i_lp_mmshare_version>
53161

> <i_f3d_flags>
0

> <s_epik_input>
RmMxW2NIXWMoW2NIXWMoQ2wpW2NIXTEpLWMoW2NIXTIpW2NIXVtjSF1jKE9DKFtDSDNdKShbQ0gzXSlbQ0gyXTMpYzJbQ0BAXTM0Qyg9TylOKFtDSDNdKUMoPU40KVtOSDJd

> <s_epik_cmdline>
J2VwaWtfcHl0aG9uJywgJy1waHQnLCAnMC4wJywgJy1waCcsICc3LjQnLCAnLXRuJywgJzgnLCAnLW1hJywgJzUwMCcsICctaW1hZScsICc8aW5maWxlLm1hZT4nLCAnLW9tYWUnLCAnPG91dGZpbGUubWFlPic=

> <r_lp_tautomer_probability>
1

> <r_epik_Ionization_Penalty>
1.0455

> <r_epik_Ionization_Penalty_Charging>
0

> <r_epik_Ionization_Penalty_Neutral>
1.0455

> <r_epik_State_Penalty>
-0

> <r_epik_Charging_Adjusted_Penalty>
0

> <i_epik_Tot_Q>
0

> <i_epik_Tot_abs_Q>
0

> <s_epik_Chemistry_Notes>
This compound has an imine and may undergo hydrolysis.

> <s_lp_Force_Field>
S-OPLS

> <r_lp_Energy>
33.5275

> <b_lp_Chiralities_Consistent>
1

> <s_lp_Variant>
lig_20-1

> <s_i_glide_gridfile>
glide-grid_4JPC-BACE_HUNT

> <i_i_glide_lignum>
11

> <i_i_glide_rotatable_bonds>
1

> <r_i_docking_score>
-7.07007

> <r_i_glide_ligand_efficiency>
-0.261854

> <r_i_glide_ligand_efficiency_sa>
-0.785563

> <r_i_glide_ligand_efficiency_ln>
-1.64579

> <r_i_glide_gscore>
-7.07007

> <r_i_glide_lipo>
-2.72441

> <r_i_glide_hbond>
-0.236736

> <r_i_glide_metal>
-0

> <r_i_glide_rewards>
-1.18958

> <r_i_glide_evdw>
-41.1253

> <r_i_glide_ecoul>
-5.63483

> <r_i_glide_erotb>
0.129493

> <r_i_glide_esite>
-0.147353

> <r_i_glide_emodel>
-68.2718

> <r_i_glide_energy>
-46.7601

> <r_i_glide_einternal>
1.23318e-09

> <i_i_glide_confnum>
8

> <i_i_glide_posenum>
6

> <r_i_glide_eff_state_penalty>
-0

> <r_i_glide_rmsd>
0.0943825

> <s_glide_core_constrain_type>
snapped_core_restrain
$$$$