lig_49932129
                    3D
 Schrodinger Suite 2021-1.
 57 61  0  0  1  0            999 V2000
   11.8798    1.2051  -46.8606 C   0  0  0  0  0  0
   11.4559    1.8818  -45.5707 C   0  0  0  0  0  0
   12.1527    1.6687  -44.3635 C   0  0  0  0  0  0
   13.2090    0.9139  -44.0786 N   0  0  0  0  0  0
   13.4235    1.0703  -42.7096 N   0  0  0  0  0  0
   12.4819    1.8774  -42.1996 C   0  0  0  0  0  0
   11.7416    2.2762  -43.2509 N   0  0  0  0  0  0
   10.6937    3.2069  -43.2747 C   0  0  0  0  0  0
   10.2773    4.0626  -42.2198 C   0  0  0  0  0  0
    9.2112    4.9745  -42.3498 C   0  0  0  0  0  0
    8.5341    5.0793  -43.5710 C   0  0  0  0  0  0
    8.9195    4.2761  -44.6456 C   0  0  0  0  0  0
    9.9903    3.3731  -44.5179 C   0  0  0  0  0  0
   10.3738    2.6839  -45.6229 N   0  0  0  0  0  0
    8.8152    5.8524  -41.1770 C   0  0  0  0  0  0
    7.7820    5.3280  -40.3161 N   0  0  0  0  0  0
    8.2412    4.2122  -39.5084 C   0  0  0  0  0  0
    7.1301    3.7386  -38.5678 C   0  0  0  0  0  0
    6.7229    4.8280  -37.7529 O   0  0  0  0  0  0
    6.2177    5.9256  -38.4987 C   0  0  0  0  0  0
    7.3111    6.4006  -39.4425 C   0  0  0  0  0  0
   12.4029    2.0887  -40.7509 C   0  0  0  0  0  0
   11.2378    1.8492  -39.9861 C   0  0  0  0  0  0
   11.2764    2.0725  -38.5867 C   0  0  0  0  0  0
   12.4897    2.5094  -38.0195 C   0  0  0  0  0  0
   13.6186    2.6863  -38.7264 N   0  0  0  0  0  0
   13.5697    2.4774  -40.0569 C   0  0  0  0  0  0
   10.0372    1.9166  -37.7161 C   0  0  0  0  0  0
   10.2352    1.1116  -36.4111 C   0  0  0  0  0  0
    9.0701    1.0860  -35.5911 O   0  0  0  0  0  0
    7.9419    0.4281  -36.1548 C   0  0  0  0  0  0
   12.6652    1.7856  -47.3476 H   0  0  0  0  0  0
   12.2702    0.2042  -46.6623 H   0  0  0  0  0  0
   11.0430    1.1061  -47.5541 H   0  0  0  0  0  0
   10.7944    4.0481  -41.2763 H   0  0  0  0  0  0
    7.7151    5.7760  -43.6836 H   0  0  0  0  0  0
    8.4068    4.3717  -45.5925 H   0  0  0  0  0  0
    9.7088    6.0876  -40.5958 H   0  0  0  0  0  0
    8.3858    6.8575  -41.4879 H   0  0  0  0  0  0
    8.5595    3.3870  -40.1436 H   0  0  0  0  0  0
    9.1115    4.5155  -38.9251 H   0  0  0  0  0  0
    7.4735    2.9416  -37.9203 H   0  0  0  0  0  0
    6.2958    3.3429  -39.1424 H   0  0  0  0  0  0
    5.9265    6.7275  -37.8194 H   0  0  0  0  0  0
    5.3322    5.6401  -39.0634 H   0  0  0  0  0  0
    8.1419    6.8011  -38.8585 H   0  0  0  0  0  0
    6.9150    7.2279  -40.0333 H   0  0  0  0  0  0
   10.3278    1.5240  -40.4690 H   0  0  0  0  0  0
   12.5647    2.7283  -36.9653 H   0  0  0  0  0  0
   14.4995    2.6385  -40.5780 H   0  0  0  0  0  0
    9.2468    1.4797  -38.3249 H   0  0  0  0  0  0
    9.7145    2.9185  -37.4388 H   0  0  0  0  0  0
   11.0123    1.5788  -35.8064 H   0  0  0  0  0  0
   10.5790    0.0959  -36.5966 H   0  0  0  0  0  0
    7.1784    0.2852  -35.3876 H   0  0  0  0  0  0
    8.2140   -0.5477  -36.5532 H   0  0  0  0  0  0
    7.4849    0.9993  -36.9594 H   0  0  0  0  0  0
  1  2  1  0  0  0
  1 32  1  0  0  0
  1 33  1  0  0  0
  1 34  1  0  0  0
  2 14  2  0  0  0
  2  3  1  0  0  0
  3  7  1  0  0  0
  3  4  2  0  0  0
  4  5  1  0  0  0
  5  6  2  0  0  0
  6  7  1  0  0  0
  6 22  1  0  0  0
  7  8  1  0  0  0
  8 13  1  0  0  0
  8  9  2  0  0  0
  9 10  1  0  0  0
  9 35  1  0  0  0
 10 11  2  0  0  0
 10 15  1  0  0  0
 11 12  1  0  0  0
 11 36  1  0  0  0
 12 13  2  0  0  0
 12 37  1  0  0  0
 13 14  1  0  0  0
 15 16  1  0  0  0
 15 38  1  0  0  0
 15 39  1  0  0  0
 16 21  1  0  0  0
 16 17  1  0  0  0
 17 18  1  0  0  0
 17 40  1  0  0  0
 17 41  1  0  0  0
 18 19  1  0  0  0
 18 42  1  0  0  0
 18 43  1  0  0  0
 19 20  1  0  0  0
 20 21  1  0  0  0
 20 44  1  0  0  0
 20 45  1  0  0  0
 21 46  1  0  0  0
 21 47  1  0  0  0
 22 27  1  0  0  0
 22 23  2  0  0  0
 23 24  1  0  0  0
 23 48  1  0  0  0
 24 25  2  0  0  0
 24 28  1  0  0  0
 25 26  1  0  0  0
 25 49  1  0  0  0
 26 27  2  0  0  0
 27 50  1  0  0  0
 28 29  1  0  0  0
 28 51  1  0  0  0
 28 52  1  0  0  0
 29 30  1  0  0  0
 29 53  1  0  0  0
 29 54  1  0  0  0
 30 31  1  0  0  0
 31 55  1  0  0  0
 31 56  1  0  0  0
 31 57  1  0  0  0
M  END
> <s_m_source_file>
ligprep_pde2.smi

> <i_m_source_file_index>
18

> <i_lp_mmshare_version>
53161

> <i_f3d_flags>
0

> <s_epik_input>
W0NIM11PW0NIMl1bQ0gyXWMoW2NIXW5bY0hdMSlbY0hdYzEtYyhubjIpbihjMjMpYzRjKG5jM1tDSDNdKVtjSF1bY0hdYyhbY0hdNClbQ0gyXU41W0NIMl1bQ0gyXU9bQ0gyXVtDSDJdNQ==

> <s_epik_cmdline>
J2VwaWtfcHl0aG9uJywgJy1waHQnLCAnMC4wJywgJy1waCcsICc3LjQnLCAnLXRuJywgJzgnLCAnLW1hJywgJzUwMCcsICctaW1hZScsICc8aW5maWxlLm1hZT4nLCAnLW9tYWUnLCAnPG91dGZpbGUubWFlPic=

> <r_epik_Ionization_Penalty>
0.1305

> <r_epik_Ionization_Penalty_Charging>
0

> <r_epik_Ionization_Penalty_Neutral>
0.1305

> <r_epik_State_Penalty>
0.1195

> <r_epik_Charging_Adjusted_Penalty>
0.119465

> <i_epik_Tot_Q>
0

> <i_epik_Tot_abs_Q>
0

> <s_lp_Force_Field>
S-OPLS

> <r_lp_Energy>
51.2125

> <b_lp_Chiralities_Consistent>
1

> <s_lp_Variant>
lig_49932129-1

> <s_i_glide_gridfile>
glide-grid_6C7E-PDE2

> <i_i_glide_lignum>
18

> <i_i_glide_rotatable_bonds>
6

> <r_i_docking_score>
-8.13651

> <r_i_glide_ligand_efficiency>
-0.262468

> <r_i_glide_ligand_efficiency_sa>
-0.824512

> <r_i_glide_ligand_efficiency_ln>
-1.83503

> <r_i_glide_gscore>
-8.25601

> <r_i_glide_lipo>
-3.46133

> <r_i_glide_hbond>
-0.864

> <r_i_glide_metal>
-0

> <r_i_glide_rewards>
-1.16144

> <r_i_glide_evdw>
-42.7384

> <r_i_glide_ecoul>
-7.66444

> <r_i_glide_erotb>
0.564557

> <r_i_glide_esite>
-0.0472079

> <r_i_glide_emodel>
-68.5565

> <r_i_glide_energy>
-50.4028

> <r_i_glide_einternal>
5.83976

> <i_i_glide_confnum>
171

> <i_i_glide_posenum>
75

> <r_i_glide_eff_state_penalty>
0.1195

> <r_i_glide_rmsd>
0.11132

> <s_glide_core_constrain_type>
snapped_core_restrain
$$$$