lig_CHEMBL1083836
                    3D
 Schrodinger Suite 2021-1.
 55 59  0  0  1  0            999 V2000
   34.2954    7.0456   16.2134 H   0  0  0  0  0  0
   33.3035    7.3706   15.9296 C   0  0  0  0  0  0
   33.1246    8.1888   14.7998 C   0  0  0  0  0  0
   33.9677    8.4992   14.2065 H   0  0  0  0  0  0
   31.8350    8.6070   14.4329 C   0  0  0  0  0  0
   31.7120    9.2337   13.5633 H   0  0  0  0  0  0
   30.7131    8.2213   15.1980 C   0  0  0  0  0  0
   29.3351    8.7146   14.8047 C   0  0  2  0  0  0
   28.6107    8.2738   15.4928 H   0  0  0  0  0  0
   28.9939    8.2251   13.4743 N   0  0  0  0  0  0
   29.1672    7.2422   13.2993 H   0  0  0  0  0  0
   27.9797    8.8621   12.7474 C   0  0  0  0  0  0
   27.6023    8.3211   11.5038 C   0  0  0  0  0  0
   28.0719    7.4244   11.1263 H   0  0  0  0  0  0
   26.6290    8.9625   10.7187 C   0  0  0  0  0  0
   26.3682    8.5560    9.7514 H   0  0  0  0  0  0
   26.0013   10.1374   11.1690 C   0  0  0  0  0  0
   25.0196   10.8187   10.2695 C   0  0  0  0  0  0
   24.4778   10.0980    9.6600 H   0  0  0  0  0  0
   24.2943   12.0897   10.6303 C   0  0  0  0  0  0
   23.2748   12.2055   10.2705 H   0  0  0  0  0  0
   24.4884   12.5639   11.5857 H   0  0  0  0  0  0
   25.4291   12.1153    9.6227 C   0  0  0  0  0  0
   26.3642   12.5619    9.9491 H   0  0  0  0  0  0
   25.1686   12.3077    8.5880 H   0  0  0  0  0  0
   26.3674   10.6668   12.4263 C   0  0  0  0  0  0
   25.9297   11.5794   12.7949 H   0  0  0  0  0  0
   27.3627   10.0513   13.2058 C   0  0  0  0  0  0
   27.8058   10.7134   14.4999 C   0  0  1  0  0  0
   27.8241   11.7892   14.3131 H   0  0  0  0  0  0
   26.8893   10.4466   15.5649 O   0  0  0  0  0  0
   27.1745   11.1819   16.7498 C   0  0  1  0  0  0
   27.2423   12.2361   16.4728 H   0  0  0  0  0  0
   25.9758   11.0664   17.7235 C   0  0  0  0  0  0
   25.0687   10.8647   17.1488 H   0  0  0  0  0  0
   25.7999   12.0284   18.2082 H   0  0  0  0  0  0
   26.1182   10.0187   18.7607 N   0  3  0  0  0  0
   26.7311    9.2954   18.4093 H   0  0  0  0  0  0
   26.5745   10.4892   20.0859 C   0  0  0  0  0  0
   26.6369    9.6465   20.7739 H   0  0  0  0  0  0
   25.8713   11.2132   20.5050 H   0  0  0  0  0  0
   27.5580   10.9562   20.0358 H   0  0  0  0  0  0
   28.5420   10.7217   17.3003 C   0  0  0  0  0  0
   28.8131   11.2988   18.1831 H   0  0  0  0  0  0
   28.5063    9.6738   17.5985 H   0  0  0  0  0  0
   29.6321   10.8894   16.2410 C   0  0  0  0  0  0
   29.8139   11.9546   16.0911 H   0  0  0  0  0  0
   30.5696   10.4755   16.6100 H   0  0  0  0  0  0
   29.2247   10.2600   14.8910 C   0  0  1  0  0  0
   29.9108   10.6659   14.1443 H   0  0  0  0  0  0
   30.8883    7.3755   16.3115 C   0  0  0  0  0  0
   30.0349    7.0533   16.8899 H   0  0  0  0  0  0
   32.1844    6.9582   16.6757 C   0  0  0  0  0  0
   32.3184    6.3115   17.5329 H   0  0  0  0  0  0
   25.2052    9.6016   18.8919 H   0  0  0  0  0  0
  1  2  1  0  0  0
  2 53  1  0  0  0
  2  3  2  0  0  0
  3  4  1  0  0  0
  3  5  1  0  0  0
  5  6  1  0  0  0
  5  7  2  0  0  0
  7  8  1  0  0  0
  7 51  1  0  0  0
  8 49  1  0  0  0
  8  9  1  0  0  0
  8 10  1  0  0  0
 10 11  1  0  0  0
 10 12  1  0  0  0
 12 28  1  0  0  0
 12 13  2  0  0  0
 13 14  1  0  0  0
 13 15  1  0  0  0
 15 16  1  0  0  0
 15 17  2  0  0  0
 17 18  1  0  0  0
 17 26  1  0  0  0
 18 23  1  0  0  0
 18 19  1  0  0  0
 18 20  1  0  0  0
 20 21  1  0  0  0
 20 22  1  0  0  0
 20 23  1  0  0  0
 23 24  1  0  0  0
 23 25  1  0  0  0
 26 27  1  0  0  0
 26 28  2  0  0  0
 28 29  1  0  0  0
 29 49  1  0  0  0
 29 30  1  0  0  0
 29 31  1  0  0  0
 31 32  1  0  0  0
 32 33  1  0  0  0
 32 34  1  0  0  0
 32 43  1  0  0  0
 34 35  1  0  0  0
 34 36  1  0  0  0
 34 37  1  0  0  0
 37 38  1  0  0  0
 37 39  1  0  0  0
 37 55  1  0  0  0
 39 40  1  0  0  0
 39 41  1  0  0  0
 39 42  1  0  0  0
 43 44  1  0  0  0
 43 45  1  0  0  0
 43 46  1  0  0  0
 46 47  1  0  0  0
 46 48  1  0  0  0
 46 49  1  0  0  0
 49 50  1  0  0  0
 51 52  1  0  0  0
 51 53  2  0  0  0
 53 54  1  0  0  0
M  CHG  1  37   1
M  END
> <s_m_source_file>
ligprep_eg5.smi

> <i_m_source_file_index>
9

> <i_lp_mmshare_version>
53161

> <i_f3d_flags>
0

> <s_epik_input>
W2NIXTFbY0hdW2NIXVtjSF1bY0hdYzFbQ0BIXShbTkhdMilbQ0BIXShbQ0gyXVtDSDJdW0NAQEhdKE8zKVtDSDJdW05IXVtDSDNdKVtDQEhdM2MoYzI0KVtjSF1jKFtjSF1bY0hdNClbQ0hdNVtDSDJdW0NIMl01

> <s_epik_cmdline>
J2VwaWtfcHl0aG9uJywgJy1waHQnLCAnMC4wJywgJy1waCcsICc3LjQnLCAnLXRuJywgJzgnLCAnLW1hJywgJzUwMCcsICctaW1hZScsICc8aW5maWxlLm1hZT4nLCAnLW9tYWUnLCAnPG91dGZpbGUubWFlPic=

> <r_lp_tautomer_probability>
1

> <r_epik_Ionization_Penalty>
0.0027

> <r_epik_Ionization_Penalty_Charging>
0.0023

> <r_epik_Ionization_Penalty_Neutral>
0.0004

> <r_epik_State_Penalty>
-0

> <r_epik_Charging_Adjusted_Penalty>
0.00233856

> <i_epik_Tot_Q>
1

> <i_epik_Tot_abs_Q>
1

> <s_lp_Force_Field>
S-OPLS

> <r_lp_Energy>
43.0329

> <b_lp_Chiralities_Consistent>
1

> <s_lp_Variant>
lig_CHEMBL1083836-1

> <s_i_glide_gridfile>
glide-grid_3L9H-EG5

> <i_i_glide_lignum>
9

> <i_i_glide_rotatable_bonds>
4

> <r_i_docking_score>
-8.36463

> <r_i_glide_ligand_efficiency>
-0.321716

> <r_i_glide_ligand_efficiency_sa>
-0.953083

> <r_i_glide_ligand_efficiency_ln>
-1.9644

> <r_i_glide_gscore>
-8.36463

> <r_i_glide_lipo>
-5.09442

> <r_i_glide_hbond>
-0.186463

> <r_i_glide_metal>
-0

> <r_i_glide_rewards>
-1.22625

> <r_i_glide_evdw>
-40.9523

> <r_i_glide_ecoul>
-2.89145

> <r_i_glide_erotb>
0.62384

> <r_i_glide_esite>
0

> <r_i_glide_emodel>
-58.7053

> <r_i_glide_energy>
-43.8437

> <r_i_glide_einternal>
3.37288

> <i_i_glide_confnum>
6

> <i_i_glide_posenum>
6

> <r_i_glide_eff_state_penalty>
-0

> <r_i_glide_rmsd>
0.0952739

> <s_glide_core_constrain_type>
snapped_core_restrain
$$$$