lig_22
                    3D
 Schrodinger Suite 2021-1.
 48 52  0  0  1  0            999 V2000
   -2.3606   14.4081   -6.2885 H   0  0  0  0  0  0
   -1.7019   13.5557   -6.3579 C   0  0  0  0  0  0
   -0.4434   13.6844   -5.9647 N   0  0  0  0  0  0
    0.1010   12.4600   -6.1403 N   0  0  0  0  0  0
    1.4725   12.2292   -5.7435 C   0  0  0  0  0  0
    1.5228   12.0897   -4.6641 H   0  0  0  0  0  0
    2.0924   13.0822   -6.0207 H   0  0  0  0  0  0
    1.8564   11.3355   -6.2332 H   0  0  0  0  0  0
   -0.8009   11.5627   -6.6710 C   0  0  0  0  0  0
   -0.5367   10.5355   -6.8697 H   0  0  0  0  0  0
   -1.9854   12.2298   -6.7900 C   0  0  0  0  0  0
   -3.2932   11.6757   -7.1877 C   0  0  0  0  0  0
   -3.3971   10.4233   -7.8321 C   0  0  0  0  0  0
   -2.5054    9.8760   -8.1015 H   0  0  0  0  0  0
   -4.6563    9.8559   -8.1115 C   0  0  0  0  0  0
   -4.7121    8.8905   -8.5942 H   0  0  0  0  0  0
   -5.8358   10.5243   -7.7256 C   0  0  0  0  0  0
   -7.1943    9.8869   -7.9579 C   0  0  0  0  0  0
   -7.2099    8.9359   -7.4260 H   0  0  0  0  0  0
   -7.9682   10.4963   -7.4899 H   0  0  0  0  0  0
   -7.5216    9.6881   -9.4089 C   0  0  0  0  0  0
   -8.1370    8.6057   -9.8218 N   0  0  0  0  0  0
   -8.3122    8.7533  -11.1600 N   0  0  0  0  0  0
   -8.7911    8.0366  -11.6956 H   0  0  0  0  0  0
   -7.7848    9.9296  -11.6586 C   0  0  0  0  0  0
   -7.2420   10.5639  -10.5115 C   0  0  0  0  0  0
   -6.5823   11.7973  -10.7024 C   0  0  0  0  0  0
   -6.1451   12.2895   -9.8481 H   0  0  0  0  0  0
   -6.4051   12.3498  -11.9903 C   0  0  0  0  0  0
   -5.5121   13.4960  -12.1692 C   0  0  0  0  0  0
   -5.7514   14.5241  -12.9828 N   0  0  0  0  0  0
   -4.6261   15.3370  -12.8839 C   0  0  0  0  0  0
   -4.5292   16.2595  -13.4343 H   0  0  0  0  0  0
   -3.7299   14.7878  -12.0148 C   0  0  0  0  0  0
   -2.7489   15.1237  -11.7076 H   0  0  0  0  0  0
   -4.2854   13.5940  -11.5952 N   0  0  0  0  0  0
   -3.6019   12.6519  -10.7284 C   0  0  0  0  0  0
   -2.5220   12.7807  -10.8133 H   0  0  0  0  0  0
   -3.8935   12.8286   -9.6950 H   0  0  0  0  0  0
   -3.8459   11.6291  -11.0118 H   0  0  0  0  0  0
   -7.0041   11.7197  -13.1039 C   0  0  0  0  0  0
   -6.8889   12.1415  -14.0921 H   0  0  0  0  0  0
   -7.7085   10.5094  -12.9358 C   0  0  0  0  0  0
   -8.1588   10.0228  -13.7876 H   0  0  0  0  0  0
   -5.7435   11.7836   -7.1023 C   0  0  0  0  0  0
   -6.6363   12.3119   -6.8045 H   0  0  0  0  0  0
   -4.4845   12.3548   -6.8447 C   0  0  0  0  0  0
   -4.4447   13.3084   -6.3395 H   0  0  0  0  0  0
  1  2  1  0  0  0
  2 11  1  0  0  0
  2  3  2  0  0  0
  3  4  1  0  0  0
  4  5  1  0  0  0
  4  9  1  0  0  0
  5  6  1  0  0  0
  5  7  1  0  0  0
  5  8  1  0  0  0
  9 10  1  0  0  0
  9 11  2  0  0  0
 11 12  1  0  0  0
 12 47  1  0  0  0
 12 13  2  0  0  0
 13 14  1  0  0  0
 13 15  1  0  0  0
 15 16  1  0  0  0
 15 17  2  0  0  0
 17 18  1  0  0  0
 17 45  1  0  0  0
 18 19  1  0  0  0
 18 20  1  0  0  0
 18 21  1  0  0  0
 21 26  1  0  0  0
 21 22  2  0  0  0
 22 23  1  0  0  0
 23 24  1  0  0  0
 23 25  1  0  0  0
 25 43  1  0  0  0
 25 26  2  0  0  0
 26 27  1  0  0  0
 27 28  1  0  0  0
 27 29  2  0  0  0
 29 30  1  0  0  0
 29 41  1  0  0  0
 30 36  1  0  0  0
 30 31  2  0  0  0
 31 32  1  0  0  0
 32 33  1  0  0  0
 32 34  2  0  0  0
 34 35  1  0  0  0
 34 36  1  0  0  0
 36 37  1  0  0  0
 37 38  1  0  0  0
 37 39  1  0  0  0
 37 40  1  0  0  0
 41 42  1  0  0  0
 41 43  2  0  0  0
 43 44  1  0  0  0
 45 46  1  0  0  0
 45 47  2  0  0  0
 47 48  1  0  0  0
M  END
> <s_m_source_file>
ligprep_cdk8.smi

> <i_m_source_file_index>
10

> <i_lp_mmshare_version>
53161

> <i_f3d_flags>
0

> <s_epik_input>
W0NIM11uMW5bY0hdYyhbY0hdMSktYzJbY0hdW2NIXWMoW2NIXVtjSF0yKVtDSDJdYyhuW25IXTMpYyhjMzQpW2NIXWMoW2NIXVtjSF00KS1jNW5bY0hdW2NIXW41W0NIM10=

> <s_epik_cmdline>
J2VwaWtfcHl0aG9uJywgJy1waHQnLCAnMC4wJywgJy1waCcsICc3LjQnLCAnLXRuJywgJzgnLCAnLW1hJywgJzUwMCcsICctaW1hZScsICc8aW5maWxlLm1hZT4nLCAnLW9tYWUnLCAnPG91dGZpbGUubWFlPic=

> <r_lp_tautomer_probability>
0.980392

> <r_epik_Ionization_Penalty>
0.112

> <r_epik_Ionization_Penalty_Charging>
0.112

> <r_epik_Ionization_Penalty_Neutral>
0.0001

> <r_epik_State_Penalty>
0.1017

> <r_epik_Charging_Adjusted_Penalty>
0.213634

> <i_epik_Tot_Q>
0

> <i_epik_Tot_abs_Q>
0

> <s_lp_Force_Field>
S-OPLS

> <r_lp_Energy>
30.8258

> <b_lp_Chiralities_Consistent>
1

> <s_lp_Variant>
lig_22-1

> <s_i_glide_gridfile>
glide-grid_5HNB-CDK8

> <i_i_glide_lignum>
10

> <i_i_glide_rotatable_bonds>
4

> <r_i_docking_score>
-10.0039

> <r_i_glide_ligand_efficiency>
-0.357283

> <r_i_glide_ligand_efficiency_sa>
-1.08492

> <r_i_glide_ligand_efficiency_ln>
-2.3092

> <r_i_glide_gscore>
-10.1056

> <r_i_glide_lipo>
-3.96654

> <r_i_glide_hbond>
-0.546922

> <r_i_glide_metal>
-0

> <r_i_glide_rewards>
-2.69058

> <r_i_glide_evdw>
-48.6357

> <r_i_glide_ecoul>
-5.78186

> <r_i_glide_erotb>
0.39748

> <r_i_glide_esite>
0

> <r_i_glide_emodel>
-81.7043

> <r_i_glide_energy>
-54.4175

> <r_i_glide_einternal>
3.788

> <i_i_glide_confnum>
11

> <i_i_glide_posenum>
2

> <r_i_glide_eff_state_penalty>
0.1017

> <r_i_glide_rmsd>
0.0919532

> <s_glide_core_constrain_type>
snapped_core_restrain
$$$$