lig_34
                    3D
 Schrodinger Suite 2021-1.
 49 53  0  0  1  0            999 V2000
   -2.3403   14.5453   -6.5471 H   0  0  0  0  0  0
   -1.6940   13.6808   -6.5236 C   0  0  0  0  0  0
   -0.4419   13.8237   -6.1112 N   0  0  0  0  0  0
    0.0848   12.5794   -6.1621 N   0  0  0  0  0  0
    1.4406   12.3547   -5.7082 C   0  0  0  0  0  0
    1.4383   12.1418   -4.6394 H   0  0  0  0  0  0
    1.8645   11.4999   -6.2344 H   0  0  0  0  0  0
    2.0581   13.2349   -5.8934 H   0  0  0  0  0  0
   -0.8189   11.6538   -6.6377 C   0  0  0  0  0  0
   -0.5697   10.6060   -6.7383 H   0  0  0  0  0  0
   -1.9885   12.3261   -6.8425 C   0  0  0  0  0  0
   -3.2921   11.7519   -7.2233 C   0  0  0  0  0  0
   -4.4916   12.4260   -6.9024 C   0  0  0  0  0  0
   -4.4621   13.3948   -6.4259 H   0  0  0  0  0  0
   -5.7414   11.8275   -7.1453 C   0  0  0  0  0  0
   -6.6439   12.3521   -6.8707 H   0  0  0  0  0  0
   -5.8131   10.5485   -7.7310 C   0  0  0  0  0  0
   -7.1585    9.8848   -7.9594 C   0  0  0  0  0  0
   -7.9442   10.4770   -7.4898 H   0  0  0  0  0  0
   -7.1539    8.9310   -7.4306 H   0  0  0  0  0  0
   -7.4815    9.6795   -9.4122 C   0  0  0  0  0  0
   -8.1292    8.6125   -9.8123 N   0  0  0  0  0  0
   -8.3135    8.7546  -11.1505 N   0  0  0  0  0  0
   -8.8193    8.0485  -11.6749 H   0  0  0  0  0  0
   -7.7698    9.9178  -11.6619 C   0  0  0  0  0  0
   -7.1805   10.5346  -10.5268 C   0  0  0  0  0  0
   -6.4866   11.7461  -10.7347 C   0  0  0  0  0  0
   -6.0171   12.2301   -9.8915 H   0  0  0  0  0  0
   -6.3668   12.3168  -12.0207 C   0  0  0  0  0  0
   -5.5786   13.5811  -12.2016 C   0  0  0  0  0  0
   -5.9571   14.4574  -12.9774 O   0  0  0  0  0  0
   -4.3780   13.6772  -11.4940 N   0  0  0  0  0  0
   -3.4201   12.5783  -11.5021 C   0  0  0  0  0  0
   -3.3801   12.0493  -12.4561 H   0  0  0  0  0  0
   -3.5002   11.9020  -10.6498 H   0  0  0  0  0  0
   -2.3435   13.6544  -11.3615 C   0  0  0  0  0  0
   -1.9279   13.8190  -10.1042 F   0  0  0  0  0  0
   -1.3312   13.4986  -12.2089 F   0  0  0  0  0  0
   -3.3801   14.6918  -11.8045 C   0  0  0  0  0  0
   -3.4341   15.5796  -11.1743 H   0  0  0  0  0  0
   -3.3294   14.9395  -12.8642 H   0  0  0  0  0  0
   -7.0164   11.7092  -13.1187 C   0  0  0  0  0  0
   -6.9606   12.1549  -14.1016 H   0  0  0  0  0  0
   -7.7203   10.5025  -12.9402 C   0  0  0  0  0  0
   -8.2113   10.0302  -13.7778 H   0  0  0  0  0  0
   -4.6242    9.8865   -8.0961 C   0  0  0  0  0  0
   -4.6657    8.9082   -8.5527 H   0  0  0  0  0  0
   -3.3757   10.4815   -7.8337 C   0  0  0  0  0  0
   -2.4751    9.9415   -8.0896 H   0  0  0  0  0  0
  1  2  1  0  0  0
  2 11  1  0  0  0
  2  3  2  0  0  0
  3  4  1  0  0  0
  4  5  1  0  0  0
  4  9  1  0  0  0
  5  6  1  0  0  0
  5  7  1  0  0  0
  5  8  1  0  0  0
  9 10  1  0  0  0
  9 11  2  0  0  0
 11 12  1  0  0  0
 12 48  1  0  0  0
 12 13  2  0  0  0
 13 14  1  0  0  0
 13 15  1  0  0  0
 15 16  1  0  0  0
 15 17  2  0  0  0
 17 18  1  0  0  0
 17 46  1  0  0  0
 18 19  1  0  0  0
 18 20  1  0  0  0
 18 21  1  0  0  0
 21 26  1  0  0  0
 21 22  2  0  0  0
 22 23  1  0  0  0
 23 24  1  0  0  0
 23 25  1  0  0  0
 25 44  1  0  0  0
 25 26  2  0  0  0
 26 27  1  0  0  0
 27 28  1  0  0  0
 27 29  2  0  0  0
 29 30  1  0  0  0
 29 42  1  0  0  0
 30 31  2  0  0  0
 30 32  1  0  0  0
 32 39  1  0  0  0
 32 33  1  0  0  0
 33 34  1  0  0  0
 33 35  1  0  0  0
 33 36  1  0  0  0
 36 37  1  0  0  0
 36 38  1  0  0  0
 36 39  1  0  0  0
 39 40  1  0  0  0
 39 41  1  0  0  0
 42 43  1  0  0  0
 42 44  2  0  0  0
 44 45  1  0  0  0
 46 47  1  0  0  0
 46 48  2  0  0  0
 48 49  1  0  0  0
M  END
> <s_m_source_file>
ligprep_cdk8.smi

> <i_m_source_file_index>
22

> <i_lp_mmshare_version>
53161

> <i_f3d_flags>
0

> <s_epik_input>
W0NIM11uMW5bY0hdYyhbY0hdMSktYzJbY0hdW2NIXWMoW2NIXVtjSF0yKVtDSDJdYyhuW25IXTMpYyhjMzQpW2NIXWMoW2NIXVtjSF00KUMoPU8pTihbQ0gyXTUpW0NIMl1DNShGKUY=

> <s_epik_cmdline>
J2VwaWtfcHl0aG9uJywgJy1waHQnLCAnMC4wJywgJy1waCcsICc3LjQnLCAnLXRuJywgJzgnLCAnLW1hJywgJzUwMCcsICctaW1hZScsICc8aW5maWxlLm1hZT4nLCAnLW9tYWUnLCAnPG91dGZpbGUubWFlPic=

> <r_lp_tautomer_probability>
1

> <r_epik_Ionization_Penalty>
0.0001

> <r_epik_Ionization_Penalty_Charging>
0

> <r_epik_Ionization_Penalty_Neutral>
0.0001

> <r_epik_State_Penalty>
-0

> <r_epik_Charging_Adjusted_Penalty>
0

> <i_epik_Tot_Q>
0

> <i_epik_Tot_abs_Q>
0

> <s_lp_Force_Field>
S-OPLS

> <r_lp_Energy>
27.6462

> <b_lp_Chiralities_Consistent>
1

> <s_lp_Variant>
lig_34-1

> <s_i_glide_gridfile>
glide-grid_5HNB-CDK8

> <i_i_glide_lignum>
22

> <i_i_glide_rotatable_bonds>
5

> <r_i_docking_score>
-8.82311

> <r_i_glide_ligand_efficiency>
-0.294104

> <r_i_glide_ligand_efficiency_sa>
-0.913849

> <r_i_glide_ligand_efficiency_ln>
-2.00471

> <r_i_glide_gscore>
-8.82311

> <r_i_glide_lipo>
-4.03401

> <r_i_glide_hbond>
-0.552224

> <r_i_glide_metal>
-0

> <r_i_glide_rewards>
-1.40172

> <r_i_glide_evdw>
-49.5509

> <r_i_glide_ecoul>
-4.9024

> <r_i_glide_erotb>
0.414794

> <r_i_glide_esite>
-0.0370527

> <r_i_glide_emodel>
-77.7958

> <r_i_glide_energy>
-54.4533

> <r_i_glide_einternal>
3.52644

> <i_i_glide_confnum>
1

> <i_i_glide_posenum>
22

> <r_i_glide_eff_state_penalty>
-0

> <r_i_glide_rmsd>
0.105199

> <s_glide_core_constrain_type>
snapped_core_restrain
$$$$