lig_9211
                    3D
 Schrodinger Suite 2021-1.
 70 76  0  0  1  0            999 V2000
  -17.9005  -10.1081   33.2415 H   0  0  0  0  0  0
  -18.3983  -10.8721   33.8275 C   0  0  0  0  0  0
  -18.4492  -10.8059   35.2020 C   0  0  0  0  0  0
  -17.8093   -9.6913   35.9369 C   0  0  0  0  0  0
  -17.5752   -8.4462   35.3000 C   0  0  0  0  0  0
  -17.8255   -8.2814   34.2635 H   0  0  0  0  0  0
  -17.1507   -7.3403   35.9338 N   0  0  0  0  0  0
  -16.9787   -7.4231   37.2631 C   0  0  0  0  0  0
  -16.7572   -6.2302   37.9346 N   0  0  0  0  0  0
  -17.7261   -5.7223   38.8992 C   0  0  0  0  0  0
  -18.2875   -4.9347   38.4028 H   0  0  0  0  0  0
  -18.4373   -6.4933   39.1986 H   0  0  0  0  0  0
  -17.0308   -5.1090   40.1156 C   0  0  0  0  0  0
  -16.6857   -5.9144   40.7610 H   0  0  0  0  0  0
  -17.7364   -4.5343   40.7104 H   0  0  0  0  0  0
  -15.8788   -4.2715   39.6956 N   0  3  0  0  0  0
  -15.4004   -3.9132   40.5081 H   0  0  0  0  0  0
  -14.9466   -5.0351   38.8171 C   0  0  0  0  0  0
  -14.6198   -5.9542   39.2980 H   0  0  0  0  0  0
  -14.0260   -4.5343   38.5720 H   0  0  0  0  0  0
  -15.6512   -5.4008   37.5288 C   0  0  0  0  0  0
  -14.9767   -5.9418   36.8642 H   0  0  0  0  0  0
  -16.0023   -4.5146   36.9973 H   0  0  0  0  0  0
  -17.0303   -8.6276   37.9788 C   0  0  0  0  0  0
  -16.8093   -8.6652   39.0352 H   0  0  0  0  0  0
  -17.3927   -9.7884   37.2846 C   0  0  0  0  0  0
  -17.3856  -10.7236   37.8194 H   0  0  0  0  0  0
  -19.0873  -11.8657   35.8072 N   0  0  0  0  0  0
  -19.5525  -12.9908   35.0596 C   0  0  0  0  0  0
  -19.9893  -13.9399   35.8891 N   0  0  0  0  0  0
  -19.9584  -13.3917   37.1623 C   0  0  0  0  0  0
  -20.4097  -14.1212   38.3763 C   0  0  0  0  0  0
  -20.2889  -15.3343   38.4606 O   0  0  0  0  0  0
  -20.9942  -13.3465   39.3064 N   0  0  0  0  0  0
  -21.0569  -12.3688   39.0737 H   0  0  0  0  0  0
  -21.5560  -13.7277   40.5553 C   0  0  0  0  0  0
  -21.4853  -14.9798   41.0688 N   0  0  0  0  0  0
  -21.9871  -15.2444   42.2942 C   0  0  0  0  0  0
  -21.8461  -16.5305   42.8546 C   0  0  0  0  0  0
  -21.3356  -17.2961   42.2910 H   0  0  0  0  0  0
  -22.3547  -16.8294   44.1332 C   0  0  0  0  0  0
  -22.2382  -17.8213   44.5463 H   0  0  0  0  0  0
  -23.0213  -15.8357   44.8723 C   0  0  0  0  0  0
  -23.4139  -16.0635   45.8530 H   0  0  0  0  0  0
  -23.1689  -14.5431   44.3359 C   0  0  0  0  0  0
  -23.6735  -13.7809   44.9117 H   0  0  0  0  0  0
  -22.6473  -14.2488   43.0591 C   0  0  0  0  0  0
  -22.7603  -12.9524   42.5243 C   0  0  0  0  0  0
  -23.2540  -12.1659   43.0766 H   0  0  0  0  0  0
  -22.1971  -12.6879   41.2631 C   0  0  0  0  0  0
  -22.2594  -11.6900   40.8541 H   0  0  0  0  0  0
  -19.4387  -12.1286   37.1279 C   0  0  0  0  0  0
  -19.2920  -11.4098   37.9130 H   0  0  0  0  0  0
  -19.4457  -12.9157   33.6301 C   0  0  0  0  0  0
  -19.8858  -13.9565   32.7751 N   0  0  0  0  0  0
  -21.1817  -14.5968   32.9943 C   0  0  0  0  0  0
  -21.4566  -14.6554   34.0441 H   0  0  0  0  0  0
  -21.9469  -13.9866   32.5140 H   0  0  0  0  0  0
  -21.1923  -16.0137   32.3833 C   0  0  0  0  0  0
  -22.1933  -16.4399   32.4543 H   0  0  0  0  0  0
  -20.5271  -16.6841   32.9289 H   0  0  0  0  0  0
  -20.8092  -15.9586   31.0116 O   0  0  0  0  0  0
  -19.4905  -15.4454   30.8533 C   0  0  0  0  0  0
  -19.2210  -15.4667   29.7973 H   0  0  0  0  0  0
  -18.7718  -16.0837   31.3707 H   0  0  0  0  0  0
  -19.4304  -14.0032   31.3851 C   0  0  0  0  0  0
  -20.0568  -13.3480   30.7776 H   0  0  0  0  0  0
  -18.4034  -13.6456   31.2990 H   0  0  0  0  0  0
  -18.9050  -11.8807   33.0571 N   0  0  0  0  0  0
  -16.2289   -3.4806   39.1471 H   0  0  0  0  0  0
  1  2  1  0  0  0
  2 69  1  0  0  0
  2  3  2  0  0  0
  3  4  1  0  0  0
  3 28  1  0  0  0
  4 26  1  0  0  0
  4  5  2  0  0  0
  5  6  1  0  0  0
  5  7  1  0  0  0
  7  8  2  0  0  0
  8  9  1  0  0  0
  8 24  1  0  0  0
  9 21  1  0  0  0
  9 10  1  0  0  0
 10 11  1  0  0  0
 10 12  1  0  0  0
 10 13  1  0  0  0
 13 14  1  0  0  0
 13 15  1  0  0  0
 13 16  1  0  0  0
 16 17  1  0  0  0
 16 18  1  0  0  0
 16 70  1  0  0  0
 18 19  1  0  0  0
 18 20  1  0  0  0
 18 21  1  0  0  0
 21 22  1  0  0  0
 21 23  1  0  0  0
 24 25  1  0  0  0
 24 26  2  0  0  0
 26 27  1  0  0  0
 28 52  1  0  0  0
 28 29  1  0  0  0
 29 30  2  0  0  0
 29 54  1  0  0  0
 30 31  1  0  0  0
 31 32  1  0  0  0
 31 52  2  0  0  0
 32 33  2  0  0  0
 32 34  1  0  0  0
 34 35  1  0  0  0
 34 36  1  0  0  0
 36 50  1  0  0  0
 36 37  2  0  0  0
 37 38  1  0  0  0
 38 47  2  0  0  0
 38 39  1  0  0  0
 39 40  1  0  0  0
 39 41  2  0  0  0
 41 42  1  0  0  0
 41 43  1  0  0  0
 43 44  1  0  0  0
 43 45  2  0  0  0
 45 46  1  0  0  0
 45 47  1  0  0  0
 47 48  1  0  0  0
 48 49  1  0  0  0
 48 50  2  0  0  0
 50 51  1  0  0  0
 52 53  1  0  0  0
 54 55  1  0  0  0
 54 69  2  0  0  0
 55 66  1  0  0  0
 55 56  1  0  0  0
 56 57  1  0  0  0
 56 58  1  0  0  0
 56 59  1  0  0  0
 59 60  1  0  0  0
 59 61  1  0  0  0
 59 62  1  0  0  0
 62 63  1  0  0  0
 63 64  1  0  0  0
 63 65  1  0  0  0
 63 66  1  0  0  0
 66 67  1  0  0  0
 66 68  1  0  0  0
M  CHG  1  16   1
M  END
> <s_m_source_file>
ligprep_pde10.smi

> <i_m_source_file_index>
34

> <i_lp_mmshare_version>
53161

> <i_f3d_flags>
0

> <s_epik_input>
W0NIMl0xW0NIMl1bTkhdW0NIMl1bQ0gyXU4xYyhbY0hdW2NIXTIpbltjSF1jMi1jM1tjSF1uYyhONFtDSDJdW0NIMl1PW0NIMl1bQ0gyXTQpYyhuMzUpbmMoW2NIXTUpQyg9TylbTkhdYyhuNilbY0hdW2NIXWMoYzY3KVtjSF1bY0hdW2NIXVtjSF03

> <s_epik_cmdline>
J2VwaWtfcHl0aG9uJywgJy1waHQnLCAnMC4wJywgJy1waCcsICc3LjQnLCAnLXRuJywgJzgnLCAnLW1hJywgJzUwMCcsICctaW1hZScsICc8aW5maWxlLm1hZT4nLCAnLW9tYWUnLCAnPG91dGZpbGUubWFlPic=

> <r_lp_tautomer_probability>
1

> <r_epik_Ionization_Penalty>
0.0248

> <r_epik_Ionization_Penalty_Charging>
0.0243

> <r_epik_Ionization_Penalty_Neutral>
0.0005

> <r_epik_State_Penalty>
-0

> <r_epik_Charging_Adjusted_Penalty>
0.0243284

> <i_epik_Tot_Q>
1

> <i_epik_Tot_abs_Q>
1

> <s_lp_Force_Field>
S-OPLS

> <r_lp_Energy>
90.4761

> <b_lp_Chiralities_Consistent>
1

> <s_lp_Variant>
lig_9211-1

> <s_i_glide_gridfile>
glide-grid_4BBX-PDE10

> <i_i_glide_lignum>
35

> <i_i_glide_rotatable_bonds>
6

> <r_i_docking_score>
-7.04828

> <r_i_glide_ligand_efficiency>
-0.176207

> <r_i_glide_ligand_efficiency_sa>
-0.60262

> <r_i_glide_ligand_efficiency_ln>
-1.50319

> <r_i_glide_gscore>
-7.04828

> <r_i_glide_lipo>
-3.87052

> <r_i_glide_hbond>
-0.457165

> <r_i_glide_metal>
-0

> <r_i_glide_rewards>
-0.155949

> <r_i_glide_evdw>
-52.7201

> <r_i_glide_ecoul>
-1.72642

> <r_i_glide_erotb>
0.430317

> <r_i_glide_esite>
-0.1

> <r_i_glide_emodel>
-56.3801

> <r_i_glide_energy>
-54.4465

> <r_i_glide_einternal>
12.6998

> <i_i_glide_confnum>
211

> <i_i_glide_posenum>
321

> <r_i_glide_eff_state_penalty>
-0

> <r_i_glide_rmsd>
0.0961456

> <s_glide_core_constrain_type>
snapped_core_restrain
$$$$