lig_1038
                    3D
 Schrodinger Suite 2021-1.
 70 76  0  0  1  0            999 V2000
  -18.0008  -10.1037   33.2320 H   0  0  0  0  0  0
  -18.4706  -10.8846   33.8206 C   0  0  0  0  0  0
  -18.4791  -10.8396   35.1903 C   0  0  0  0  0  0
  -17.8116   -9.7261   35.9328 C   0  0  0  0  0  0
  -17.5641   -8.4688   35.3207 C   0  0  0  0  0  0
  -17.7878   -8.2886   34.2837 H   0  0  0  0  0  0
  -17.2001   -7.3560   35.9856 N   0  0  0  0  0  0
  -17.0846   -7.4170   37.3222 C   0  0  0  0  0  0
  -16.9722   -6.2032   38.0056 N   0  0  0  0  0  0
  -17.8671   -5.8097   39.0942 C   0  0  0  0  0  0
  -18.4836   -4.9804   38.7450 H   0  0  0  0  0  0
  -18.5589   -6.6209   39.3426 H   0  0  0  0  0  0
  -17.0881   -5.3320   40.3361 C   0  0  0  0  0  0
  -16.6917   -6.2083   40.8469 H   0  0  0  0  0  0
  -17.7507   -4.8417   41.0503 H   0  0  0  0  0  0
  -15.9677   -4.4406   39.9541 N   0  3  0  0  0  0
  -15.4292   -4.1371   40.7480 H   0  0  0  0  0  0
  -15.0857   -5.0946   38.9317 C   0  0  0  0  0  0
  -14.7156   -6.0530   39.2976 H   0  0  0  0  0  0
  -14.1971   -4.5342   38.7022 H   0  0  0  0  0  0
  -15.8702   -5.3376   37.6514 C   0  0  0  0  0  0
  -15.2178   -5.7883   36.9023 H   0  0  0  0  0  0
  -16.2408   -4.3996   37.2414 H   0  0  0  0  0  0
  -17.1332   -8.6364   38.0153 C   0  0  0  0  0  0
  -16.9744   -8.6691   39.0784 H   0  0  0  0  0  0
  -17.4264   -9.8083   37.2955 C   0  0  0  0  0  0
  -17.4015  -10.7348   37.8280 H   0  0  0  0  0  0
  -19.0840  -11.9172   35.8066 N   0  0  0  0  0  0
  -19.5996  -13.0217   35.0605 C   0  0  0  0  0  0
  -20.0779  -13.9625   35.8853 N   0  0  0  0  0  0
  -19.9193  -13.4811   37.1698 C   0  0  0  0  0  0
  -20.3791  -14.2685   38.3744 C   0  0  0  0  0  0
  -19.5205  -14.7097   38.8760 H   0  0  0  0  0  0
  -21.0198  -15.0905   38.0674 H   0  0  0  0  0  0
  -21.0886  -13.4221   39.2658 O   0  0  0  0  0  0
  -21.6011  -13.9219   40.4454 C   0  0  0  0  0  0
  -21.3266  -15.2000   40.8173 N   0  0  0  0  0  0
  -21.7430  -15.6221   42.0382 C   0  0  0  0  0  0
  -21.3626  -16.8988   42.5229 C   0  0  0  0  0  0
  -20.7366  -17.5314   41.9099 H   0  0  0  0  0  0
  -21.7355  -17.3438   43.8111 C   0  0  0  0  0  0
  -21.4295  -18.3165   44.1599 H   0  0  0  0  0  0
  -22.5397  -16.5265   44.6286 C   0  0  0  0  0  0
  -22.8383  -16.8688   45.6068 H   0  0  0  0  0  0
  -22.9453  -15.2581   44.1683 C   0  0  0  0  0  0
  -23.5483  -14.6318   44.8096 H   0  0  0  0  0  0
  -22.5370  -14.8053   42.8950 C   0  0  0  0  0  0
  -22.8855  -13.5161   42.4598 C   0  0  0  0  0  0
  -23.4830  -12.8599   43.0766 H   0  0  0  0  0  0
  -22.3911  -13.0543   41.2250 C   0  0  0  0  0  0
  -22.6149  -12.0563   40.8865 H   0  0  0  0  0  0
  -19.3581  -12.2373   37.1384 C   0  0  0  0  0  0
  -19.1819  -11.5641   37.9587 H   0  0  0  0  0  0
  -19.4862  -12.9385   33.6336 C   0  0  0  0  0  0
  -19.8871  -13.9837   32.7697 N   0  0  0  0  0  0
  -21.1806  -14.6236   32.9569 C   0  0  0  0  0  0
  -21.4668  -14.7065   34.0078 H   0  0  0  0  0  0
  -21.9412  -13.9977   32.4831 H   0  0  0  0  0  0
  -21.1866  -16.0273   32.3212 C   0  0  0  0  0  0
  -22.1910  -16.4443   32.3919 H   0  0  0  0  0  0
  -20.5407  -16.7115   32.8735 H   0  0  0  0  0  0
  -20.7818  -15.9676   30.9595 O   0  0  0  0  0  0
  -19.4532  -15.4645   30.8400 C   0  0  0  0  0  0
  -19.1550  -15.4755   29.7929 H   0  0  0  0  0  0
  -18.7653  -16.1176   31.3710 H   0  0  0  0  0  0
  -19.3981  -14.0337   31.3869 C   0  0  0  0  0  0
  -20.0197  -13.3761   30.7770 H   0  0  0  0  0  0
  -18.3664  -13.6780   31.3241 H   0  0  0  0  0  0
  -18.9684  -11.8954   33.0532 N   0  0  0  0  0  0
  -16.3327   -3.6026   39.4937 H   0  0  0  0  0  0
  1  2  1  0  0  0
  2 69  1  0  0  0
  2  3  2  0  0  0
  3  4  1  0  0  0
  3 28  1  0  0  0
  4 26  1  0  0  0
  4  5  2  0  0  0
  5  6  1  0  0  0
  5  7  1  0  0  0
  7  8  2  0  0  0
  8  9  1  0  0  0
  8 24  1  0  0  0
  9 21  1  0  0  0
  9 10  1  0  0  0
 10 11  1  0  0  0
 10 12  1  0  0  0
 10 13  1  0  0  0
 13 14  1  0  0  0
 13 15  1  0  0  0
 13 16  1  0  0  0
 16 17  1  0  0  0
 16 18  1  0  0  0
 16 70  1  0  0  0
 18 19  1  0  0  0
 18 20  1  0  0  0
 18 21  1  0  0  0
 21 22  1  0  0  0
 21 23  1  0  0  0
 24 25  1  0  0  0
 24 26  2  0  0  0
 26 27  1  0  0  0
 28 52  1  0  0  0
 28 29  1  0  0  0
 29 30  2  0  0  0
 29 54  1  0  0  0
 30 31  1  0  0  0
 31 32  1  0  0  0
 31 52  2  0  0  0
 32 33  1  0  0  0
 32 34  1  0  0  0
 32 35  1  0  0  0
 35 36  1  0  0  0
 36 50  1  0  0  0
 36 37  2  0  0  0
 37 38  1  0  0  0
 38 47  2  0  0  0
 38 39  1  0  0  0
 39 40  1  0  0  0
 39 41  2  0  0  0
 41 42  1  0  0  0
 41 43  1  0  0  0
 43 44  1  0  0  0
 43 45  2  0  0  0
 45 46  1  0  0  0
 45 47  1  0  0  0
 47 48  1  0  0  0
 48 49  1  0  0  0
 48 50  2  0  0  0
 50 51  1  0  0  0
 52 53  1  0  0  0
 54 55  1  0  0  0
 54 69  2  0  0  0
 55 66  1  0  0  0
 55 56  1  0  0  0
 56 57  1  0  0  0
 56 58  1  0  0  0
 56 59  1  0  0  0
 59 60  1  0  0  0
 59 61  1  0  0  0
 59 62  1  0  0  0
 62 63  1  0  0  0
 63 64  1  0  0  0
 63 65  1  0  0  0
 63 66  1  0  0  0
 66 67  1  0  0  0
 66 68  1  0  0  0
M  CHG  1  16   1
M  END
> <s_m_source_file>
ligprep_pde10.smi

> <i_m_source_file_index>
6

> <i_lp_mmshare_version>
53161

> <i_f3d_flags>
0

> <s_epik_input>
W0NIMl0xW0NIMl1bTkhdW0NIMl1bQ0gyXU4xYyhbY0hdW2NIXTIpbltjSF1jMi1jM1tjSF1uYyhONFtDSDJdW0NIMl1PW0NIMl1bQ0gyXTQpYyhuMzUpbmMoW2NIXTUpW0NIMl1PYyhuNilbY0hdW2NIXWMoYzY3KVtjSF1bY0hdW2NIXVtjSF03

> <s_epik_cmdline>
J2VwaWtfcHl0aG9uJywgJy1waHQnLCAnMC4wJywgJy1waCcsICc3LjQnLCAnLXRuJywgJzgnLCAnLW1hJywgJzUwMCcsICctaW1hZScsICc8aW5maWxlLm1hZT4nLCAnLW9tYWUnLCAnPG91dGZpbGUubWFlPic=

> <r_lp_tautomer_probability>
1

> <r_epik_Ionization_Penalty>
0.0261

> <r_epik_Ionization_Penalty_Charging>
0.0256

> <r_epik_Ionization_Penalty_Neutral>
0.0005

> <r_epik_State_Penalty>
-0

> <r_epik_Charging_Adjusted_Penalty>
0.0256039

> <i_epik_Tot_Q>
1

> <i_epik_Tot_abs_Q>
1

> <s_lp_Force_Field>
S-OPLS

> <r_lp_Energy>
85.2552

> <b_lp_Chiralities_Consistent>
1

> <s_lp_Variant>
lig_1038-1

> <s_i_glide_gridfile>
glide-grid_4BBX-PDE10

> <i_i_glide_lignum>
7

> <i_i_glide_rotatable_bonds>
6

> <r_i_docking_score>
-7.2782

> <r_i_glide_ligand_efficiency>
-0.186621

> <r_i_glide_ligand_efficiency_sa>
-0.63287

> <r_i_glide_ligand_efficiency_ln>
-1.56065

> <r_i_glide_gscore>
-7.2782

> <r_i_glide_lipo>
-4.44123

> <r_i_glide_hbond>
-0.444928

> <r_i_glide_metal>
-0

> <r_i_glide_rewards>
-0.153934

> <r_i_glide_evdw>
-51.4293

> <r_i_glide_ecoul>
-0.112195

> <r_i_glide_erotb>
0.450192

> <r_i_glide_esite>
-0.1

> <r_i_glide_emodel>
-50.8478

> <r_i_glide_energy>
-51.5415

> <r_i_glide_einternal>
13.8998

> <i_i_glide_confnum>
297

> <i_i_glide_posenum>
139

> <r_i_glide_eff_state_penalty>
-0

> <r_i_glide_rmsd>
0.104908

> <s_glide_core_constrain_type>
snapped_core_restrain
$$$$