lig_20
                    3D
 Schrodinger Suite 2021-1.
 55 58  0  0  1  0            999 V2000
    1.1971   15.0634   -6.6445 H   0  0  0  0  0  0
    1.9556   15.1237   -6.0740 O   0  0  0  0  0  0
    1.7339   14.2197   -5.0111 C   0  0  0  0  0  0
    3.0763   14.1080   -4.2785 C   0  0  0  0  0  0
    2.9970   13.4285   -3.4333 H   0  0  0  0  0  0
    3.4052   15.0732   -3.8916 H   0  0  0  0  0  0
    3.8602   13.7353   -4.9404 H   0  0  0  0  0  0
    0.6675   14.8321   -4.0844 C   0  0  0  0  0  0
    0.4813   14.1807   -3.2282 H   0  0  0  0  0  0
    0.9915   15.7995   -3.6994 H   0  0  0  0  0  0
   -0.2811   14.9960   -4.5996 H   0  0  0  0  0  0
    1.2966   12.8397   -5.5792 C   0  0  0  0  0  0
    2.0664   12.4320   -6.2316 H   0  0  0  0  0  0
    1.2122   12.1310   -4.7535 H   0  0  0  0  0  0
    0.0248   12.8321   -6.3015 N   0  0  0  0  0  0
   -0.2992   13.8444   -7.1561 N   0  0  0  0  0  0
   -1.5052   13.5485   -7.6091 C   0  0  0  0  0  0
   -2.0004   14.2263   -8.2936 H   0  0  0  0  0  0
   -1.9657   12.3178   -7.0687 C   0  0  0  0  0  0
   -3.2679   11.6954   -7.3103 C   0  0  0  0  0  0
   -3.3670   10.3894   -7.8330 C   0  0  0  0  0  0
   -2.4694    9.8301   -8.0673 H   0  0  0  0  0  0
   -4.6298    9.8105   -8.0618 C   0  0  0  0  0  0
   -4.6930    8.8105   -8.4663 H   0  0  0  0  0  0
   -5.8062   10.5199   -7.7449 C   0  0  0  0  0  0
   -7.1636    9.8851   -7.9733 C   0  0  0  0  0  0
   -7.1779    8.9348   -7.4391 H   0  0  0  0  0  0
   -7.9398   10.4934   -7.5115 H   0  0  0  0  0  0
   -7.4865    9.6845   -9.4237 C   0  0  0  0  0  0
   -8.1318    8.6134   -9.8230 N   0  0  0  0  0  0
   -8.3152    8.7560  -11.1616 N   0  0  0  0  0  0
   -8.8223    8.0528  -11.6892 H   0  0  0  0  0  0
   -7.7785    9.9241  -11.6697 C   0  0  0  0  0  0
   -7.1968   10.5504  -10.5356 C   0  0  0  0  0  0
   -6.5243   11.7786  -10.7436 C   0  0  0  0  0  0
   -6.0722   12.2724   -9.8974 H   0  0  0  0  0  0
   -6.4053   12.3452  -12.0351 C   0  0  0  0  0  0
   -5.6321   13.6165  -12.2450 C   0  0  0  0  0  0
   -6.0236   14.4756  -13.0328 O   0  0  0  0  0  0
   -4.4855   13.7134  -11.5547 N   0  0  0  0  0  0
   -4.2267   12.9376  -10.9644 H   0  0  0  0  0  0
   -3.5878   14.8581  -11.6059 C   0  0  0  0  0  0
   -2.6685   14.6495  -11.0552 H   0  0  0  0  0  0
   -3.3173   15.1000  -12.6345 H   0  0  0  0  0  0
   -4.0627   15.7327  -11.1607 H   0  0  0  0  0  0
   -7.0471   11.7236  -13.1264 C   0  0  0  0  0  0
   -6.9979   12.1684  -14.1099 H   0  0  0  0  0  0
   -7.7334   10.5074  -12.9482 C   0  0  0  0  0  0
   -8.2137   10.0290  -13.7883 H   0  0  0  0  0  0
   -5.7112   11.8214   -7.2181 C   0  0  0  0  0  0
   -6.6015   12.3806   -6.9773 H   0  0  0  0  0  0
   -4.4481   12.4066   -7.0132 C   0  0  0  0  0  0
   -4.3886   13.4050   -6.6077 H   0  0  0  0  0  0
   -0.9526   11.8532   -6.2819 C   0  0  0  0  0  0
   -0.8594   10.9456   -5.6987 H   0  0  0  0  0  0
  1  2  1  0  0  0
  2  3  1  0  0  0
  3  4  1  0  0  0
  3  8  1  0  0  0
  3 12  1  0  0  0
  4  5  1  0  0  0
  4  6  1  0  0  0
  4  7  1  0  0  0
  8  9  1  0  0  0
  8 10  1  0  0  0
  8 11  1  0  0  0
 12 13  1  0  0  0
 12 14  1  0  0  0
 12 15  1  0  0  0
 15 54  1  0  0  0
 15 16  1  0  0  0
 16 17  2  0  0  0
 17 18  1  0  0  0
 17 19  1  0  0  0
 19 20  1  0  0  0
 19 54  2  0  0  0
 20 52  1  0  0  0
 20 21  2  0  0  0
 21 22  1  0  0  0
 21 23  1  0  0  0
 23 24  1  0  0  0
 23 25  2  0  0  0
 25 26  1  0  0  0
 25 50  1  0  0  0
 26 27  1  0  0  0
 26 28  1  0  0  0
 26 29  1  0  0  0
 29 34  1  0  0  0
 29 30  2  0  0  0
 30 31  1  0  0  0
 31 32  1  0  0  0
 31 33  1  0  0  0
 33 48  1  0  0  0
 33 34  2  0  0  0
 34 35  1  0  0  0
 35 36  1  0  0  0
 35 37  2  0  0  0
 37 38  1  0  0  0
 37 46  1  0  0  0
 38 39  2  0  0  0
 38 40  1  0  0  0
 40 41  1  0  0  0
 40 42  1  0  0  0
 42 43  1  0  0  0
 42 44  1  0  0  0
 42 45  1  0  0  0
 46 47  1  0  0  0
 46 48  2  0  0  0
 48 49  1  0  0  0
 50 51  1  0  0  0
 50 52  2  0  0  0
 52 53  1  0  0  0
 54 55  1  0  0  0
M  END
> <s_m_source_file>
ligprep_cdk8.smi

> <i_m_source_file_index>
8

> <i_lp_mmshare_version>
53161

> <i_f3d_flags>
0

> <s_epik_input>
W09IXUMoW0NIM10pKFtDSDNdKVtDSDJdbjFuW2NIXWMoW2NIXTEpLWMyW2NIXVtjSF1jKFtjSF1bY0hdMilbQ0gyXWMobltuSF0zKWMoYzM0KVtjSF1jKFtjSF1bY0hdNClDKD1PKVtOSF1bQ0gzXQ==

> <s_epik_cmdline>
J2VwaWtfcHl0aG9uJywgJy1waHQnLCAnMC4wJywgJy1waCcsICc3LjQnLCAnLXRuJywgJzgnLCAnLW1hJywgJzUwMCcsICctaW1hZScsICc8aW5maWxlLm1hZT4nLCAnLW9tYWUnLCAnPG91dGZpbGUubWFlPic=

> <r_lp_tautomer_probability>
1

> <r_epik_Ionization_Penalty>
0.002

> <r_epik_Ionization_Penalty_Charging>
0

> <r_epik_Ionization_Penalty_Neutral>
0.002

> <r_epik_State_Penalty>
-0

> <r_epik_Charging_Adjusted_Penalty>
0

> <i_epik_Tot_Q>
0

> <i_epik_Tot_abs_Q>
0

> <s_lp_Force_Field>
S-OPLS

> <r_lp_Energy>
25.7016

> <b_lp_Chiralities_Consistent>
1

> <s_lp_Variant>
lig_20-1

> <s_i_glide_gridfile>
glide-grid_5HNB-CDK8

> <i_i_glide_lignum>
8

> <i_i_glide_rotatable_bonds>
8

> <r_i_docking_score>
-9.79601

> <r_i_glide_ligand_efficiency>
-0.326534

> <r_i_glide_ligand_efficiency_sa>
-1.01462

> <r_i_glide_ligand_efficiency_ln>
-2.22576

> <r_i_glide_gscore>
-9.79601

> <r_i_glide_lipo>
-4.23915

> <r_i_glide_hbond>
-0.554197

> <r_i_glide_metal>
-0

> <r_i_glide_rewards>
-2.24298

> <r_i_glide_evdw>
-49.0116

> <r_i_glide_ecoul>
-6.00048

> <r_i_glide_erotb>
0.590968

> <r_i_glide_esite>
0

> <r_i_glide_emodel>
-86.0977

> <r_i_glide_energy>
-55.012

> <r_i_glide_einternal>
4.85374

> <i_i_glide_confnum>
74

> <i_i_glide_posenum>
88

> <r_i_glide_eff_state_penalty>
-0

> <r_i_glide_rmsd>
0.103504

> <s_glide_core_constrain_type>
snapped_core_restrain
$$$$