lig_37
                    3D
 Schrodinger Suite 2021-1.
 62 67  0  0  1  0            999 V2000
   96.7519   45.9324  267.0693 H   0  0  0  0  0  0
   96.0335   46.7251  267.2167 C   0  0  0  0  0  0
   94.7692   46.4957  266.8141 N   0  0  0  0  0  0
   93.8672   47.4969  266.9611 C   0  0  0  0  0  0
   94.2426   48.7387  267.5620 C   0  0  0  0  0  0
   95.5086   48.9253  268.0128 N   0  0  0  0  0  0
   96.4024   47.9383  267.8206 C   0  0  0  0  0  0
   97.4138   48.1220  268.1491 H   0  0  0  0  0  0
   93.2742   49.7653  267.6813 C   0  0  0  0  0  0
   93.5804   51.0561  268.3071 C   0  0  0  0  0  0
   94.5344   51.9353  267.7592 C   0  0  0  0  0  0
   95.0736   51.6524  266.8653 H   0  0  0  0  0  0
   94.7739   53.1907  268.3464 C   0  0  0  0  0  0
   95.4940   53.8575  267.8973 H   0  0  0  0  0  0
   94.0730   53.5984  269.4985 C   0  0  0  0  0  0
   94.0295   54.7790  270.2995 C   0  0  0  0  0  0
   94.5958   55.6833  270.1349 H   0  0  0  0  0  0
   93.1741   54.5312  271.3355 C   0  0  0  0  0  0
   92.9002   55.1685  272.1598 H   0  0  0  0  0  0
   92.6286   53.2670  271.2052 N   0  0  0  0  0  0
   91.6715   52.6697  272.1156 C   0  0  0  0  0  0
   91.5735   53.2805  273.0163 H   0  0  0  0  0  0
   90.6981   52.5880  271.6298 H   0  0  0  0  0  0
   92.0088   51.6717  272.4076 H   0  0  0  0  0  0
   93.1459   52.6778  270.0648 C   0  0  0  0  0  0
   92.8951   51.4341  269.4754 C   0  0  0  0  0  0
   92.1738   50.7657  269.9202 H   0  0  0  0  0  0
   91.9592   49.5476  267.2309 C   0  0  0  0  0  0
   91.2244   50.3316  267.3472 H   0  0  0  0  0  0
   91.5811   48.3312  266.6498 C   0  0  0  0  0  0
   90.2417   48.1693  266.2831 N   0  0  0  0  0  0
   89.5621   48.7035  266.8120 H   0  0  0  0  0  0
   89.6682   47.3149  265.3258 C   0  0  0  0  0  0
   90.3842   46.9246  264.1701 C   0  0  0  0  0  0
   91.3995   47.2545  264.0008 H   0  0  0  0  0  0
   89.8730   46.1366  263.2082 N   0  0  0  0  0  0
   88.5993   45.7284  263.3249 C   0  0  0  0  0  0
   88.2188   45.1038  262.5305 H   0  0  0  0  0  0
   87.7867   46.0660  264.4177 C   0  0  0  0  0  0
   86.7680   45.7045  264.4566 H   0  0  0  0  0  0
   88.3238   46.8592  265.4585 C   0  0  0  0  0  0
   87.4780   47.2110  266.6615 C   0  0  0  0  0  0
   87.5895   48.3052  267.2158 O   0  0  0  0  0  0
   86.6774   46.2387  267.1307 N   0  0  0  0  0  0
   86.6682   45.3667  266.6162 H   0  0  0  0  0  0
   85.9631   46.2516  268.4168 C   0  0  0  0  0  0
   86.6956   46.3703  269.2117 H   0  0  0  0  0  0
   84.9512   47.4208  268.5406 C   0  0  0  0  0  0
   84.4050   47.5715  267.6105 H   0  0  0  0  0  0
   85.4795   48.3585  268.7100 H   0  0  0  0  0  0
   83.9367   47.2210  269.6815 C   0  0  0  0  0  0
   83.1730   47.9910  269.6117 H   0  0  0  0  0  0
   84.3739   47.3537  270.6688 H   0  0  0  0  0  0
   83.3300   45.9390  269.6110 O   0  0  0  0  0  0
   84.2707   44.8859  269.7756 C   0  0  0  0  0  0
   83.7300   43.9395  269.7943 H   0  0  0  0  0  0
   84.7720   44.9720  270.7388 H   0  0  0  0  0  0
   85.2829   44.8832  268.6160 C   0  0  0  0  0  0
   86.0398   44.1175  268.7990 H   0  0  0  0  0  0
   84.7736   44.5758  267.7052 H   0  0  0  0  0  0
   92.5429   47.3139  266.5140 C   0  0  0  0  0  0
   92.2594   46.3714  266.0768 H   0  0  0  0  0  0
  1  2  1  0  0  0
  2  7  1  0  0  0
  2  3  2  0  0  0
  3  4  1  0  0  0
  4 61  1  0  0  0
  4  5  2  0  0  0
  5  6  1  0  0  0
  5  9  1  0  0  0
  6  7  2  0  0  0
  7  8  1  0  0  0
  9 10  1  0  0  0
  9 28  2  0  0  0
 10 26  1  0  0  0
 10 11  2  0  0  0
 11 12  1  0  0  0
 11 13  1  0  0  0
 13 14  1  0  0  0
 13 15  2  0  0  0
 15 25  1  0  0  0
 15 16  1  0  0  0
 16 17  1  0  0  0
 16 18  2  0  0  0
 18 19  1  0  0  0
 18 20  1  0  0  0
 20 21  1  0  0  0
 20 25  1  0  0  0
 21 22  1  0  0  0
 21 23  1  0  0  0
 21 24  1  0  0  0
 25 26  2  0  0  0
 26 27  1  0  0  0
 28 29  1  0  0  0
 28 30  1  0  0  0
 30 31  1  0  0  0
 30 61  2  0  0  0
 31 32  1  0  0  0
 31 33  1  0  0  0
 33 41  1  0  0  0
 33 34  2  0  0  0
 34 35  1  0  0  0
 34 36  1  0  0  0
 36 37  2  0  0  0
 37 38  1  0  0  0
 37 39  1  0  0  0
 39 40  1  0  0  0
 39 41  2  0  0  0
 41 42  1  0  0  0
 42 43  2  0  0  0
 42 44  1  0  0  0
 44 45  1  0  0  0
 44 46  1  0  0  0
 46 58  1  0  0  0
 46 47  1  0  0  0
 46 48  1  0  0  0
 48 49  1  0  0  0
 48 50  1  0  0  0
 48 51  1  0  0  0
 51 52  1  0  0  0
 51 53  1  0  0  0
 51 54  1  0  0  0
 54 55  1  0  0  0
 55 56  1  0  0  0
 55 57  1  0  0  0
 55 58  1  0  0  0
 58 59  1  0  0  0
 58 60  1  0  0  0
 61 62  1  0  0  0
M  END
> <s_m_source_file>
ligprep_pfkfb3.smi

> <i_m_source_file_index>
13

> <i_lp_mmshare_version>
53161

> <i_f3d_flags>
0

> <s_epik_input>
W2NIXTFbY0hdbihbQ0gzXSljKGMxMilbY0hdYyhbY0hdW2NIXTIpLWMoYyhjMzQpbltjSF1bY0hdbjMpW2NIXWMoW2NIXTQpW05IXWM1W2NIXW5bY0hdW2NIXWM1Qyg9TylbTkhdW0NIXTZbQ0gyXVtDSDJdT1tDSDJdW0NIMl02

> <s_epik_cmdline>
J2VwaWtfcHl0aG9uJywgJy1waHQnLCAnMC4wJywgJy1waCcsICc3LjQnLCAnLXRuJywgJzgnLCAnLW1hJywgJzUwMCcsICctaW1hZScsICc8aW5maWxlLm1hZT4nLCAnLW9tYWUnLCAnPG91dGZpbGUubWFlPic=

> <r_lp_tautomer_probability>
1

> <r_epik_Ionization_Penalty>
0.0004

> <r_epik_Ionization_Penalty_Charging>
0

> <r_epik_Ionization_Penalty_Neutral>
0.0004

> <r_epik_State_Penalty>
-0

> <r_epik_Charging_Adjusted_Penalty>
0

> <i_epik_Tot_Q>
0

> <i_epik_Tot_abs_Q>
0

> <s_lp_Force_Field>
S-OPLS

> <r_lp_Energy>
68.6483

> <b_lp_Chiralities_Consistent>
1

> <s_lp_Variant>
lig_37-1

> <s_i_glide_gridfile>
glide-grid_6HVI-PFKFB3

> <i_i_glide_lignum>
13

> <i_i_glide_rotatable_bonds>
6

> <r_i_docking_score>
-11.8248

> <r_i_glide_ligand_efficiency>
-0.328467

> <r_i_glide_ligand_efficiency_sa>
-1.08457

> <r_i_glide_ligand_efficiency_ln>
-2.57985

> <r_i_glide_gscore>
-11.8248

> <r_i_glide_lipo>
-6.81002

> <r_i_glide_hbond>
-0.32

> <r_i_glide_metal>
-0

> <r_i_glide_rewards>
-1.11837

> <r_i_glide_evdw>
-70.1825

> <r_i_glide_ecoul>
-3.86199

> <r_i_glide_erotb>
0.530955

> <r_i_glide_esite>
-0.0189345

> <r_i_glide_emodel>
-116.384

> <r_i_glide_energy>
-74.0445

> <r_i_glide_einternal>
2.67995

> <i_i_glide_confnum>
48

> <i_i_glide_posenum>
58

> <r_i_glide_eff_state_penalty>
-0

> <r_i_glide_rmsd>
0.0861175

> <s_glide_core_constrain_type>
snapped_core_restrain
$$$$