lig_38
                    3D
 Schrodinger Suite 2021-1.
 51 54  0  0  1  0            999 V2000
   96.7147   45.9529  267.0791 H   0  0  0  0  0  0
   96.0043   46.7559  267.2138 C   0  0  0  0  0  0
   94.7438   46.5288  266.8135 N   0  0  0  0  0  0
   93.8332   47.5241  266.9715 C   0  0  0  0  0  0
   94.2048   48.7647  267.5759 C   0  0  0  0  0  0
   95.4774   48.9516  268.0129 N   0  0  0  0  0  0
   96.3737   47.9714  267.8152 C   0  0  0  0  0  0
   97.3885   48.1551  268.1392 H   0  0  0  0  0  0
   93.2385   49.7951  267.7120 C   0  0  0  0  0  0
   93.5668   51.0894  268.3372 C   0  0  0  0  0  0
   92.8842   51.4963  269.5003 C   0  0  0  0  0  0
   92.1358   50.8312  269.9024 H   0  0  0  0  0  0
   93.1629   52.7365  270.1259 C   0  0  0  0  0  0
   92.4839   53.1172  271.3071 N   0  0  0  0  0  0
   92.8579   54.3489  271.9926 C   0  0  0  0  0  0
   93.9347   54.3966  272.1752 H   0  0  0  0  0  0
   92.5574   55.2068  271.3862 H   0  0  0  0  0  0
   92.3718   54.4252  272.9635 H   0  0  0  0  0  0
   91.4422   52.2734  271.8835 C   0  0  0  0  0  0
   90.6614   52.0749  271.1503 H   0  0  0  0  0  0
   91.8567   51.3298  272.2323 H   0  0  0  0  0  0
   90.9730   52.7706  272.7347 H   0  0  0  0  0  0
   94.1344   53.5814  269.5401 C   0  0  0  0  0  0
   94.3737   54.5480  269.9622 H   0  0  0  0  0  0
   94.8384   53.1728  268.3940 C   0  0  0  0  0  0
   95.5863   53.8188  267.9601 H   0  0  0  0  0  0
   94.5555   51.9352  267.7891 C   0  0  0  0  0  0
   95.0926   51.6316  266.8993 H   0  0  0  0  0  0
   91.9161   49.5593  267.2694 C   0  0  0  0  0  0
   91.1760   50.3352  267.4007 H   0  0  0  0  0  0
   91.5386   48.3352  266.6838 C   0  0  0  0  0  0
   90.1943   48.1499  266.3238 N   0  0  0  0  0  0
   89.5161   48.6917  266.8526 H   0  0  0  0  0  0
   89.6392   47.3262  265.3246 C   0  0  0  0  0  0
   90.3738   46.9313  264.1834 C   0  0  0  0  0  0
   91.3965   47.2482  264.0350 H   0  0  0  0  0  0
   89.8765   46.1380  263.2133 N   0  0  0  0  0  0
   88.6033   45.7226  263.2966 C   0  0  0  0  0  0
   88.2560   45.0889  262.4929 H   0  0  0  0  0  0
   87.7699   46.0673  264.3696 C   0  0  0  0  0  0
   86.7588   45.6889  264.4136 H   0  0  0  0  0  0
   88.2908   46.8854  265.3919 C   0  0  0  0  0  0
   87.2222   47.2133  266.7917 S   0  0  0  0  0  0
   85.8305   47.1582  266.3249 O   0  0  0  0  0  0
   87.6754   48.4243  267.4863 O   0  0  0  0  0  0
   87.5335   45.7899  267.8938 C   0  0  0  0  0  0
   86.8977   45.8727  268.7731 H   0  0  0  0  0  0
   87.2844   44.8677  267.3630 H   0  0  0  0  0  0
   88.5891   45.7855  268.1765 H   0  0  0  0  0  0
   92.5069   47.3249  266.5409 C   0  0  0  0  0  0
   92.2344   46.3723  266.1134 H   0  0  0  0  0  0
  1  2  1  0  0  0
  2  7  1  0  0  0
  2  3  2  0  0  0
  3  4  1  0  0  0
  4 50  1  0  0  0
  4  5  2  0  0  0
  5  6  1  0  0  0
  5  9  1  0  0  0
  6  7  2  0  0  0
  7  8  1  0  0  0
  9 10  1  0  0  0
  9 29  2  0  0  0
 10 27  1  0  0  0
 10 11  2  0  0  0
 11 12  1  0  0  0
 11 13  1  0  0  0
 13 14  1  0  0  0
 13 23  2  0  0  0
 14 15  1  0  0  0
 14 19  1  0  0  0
 15 16  1  0  0  0
 15 17  1  0  0  0
 15 18  1  0  0  0
 19 20  1  0  0  0
 19 21  1  0  0  0
 19 22  1  0  0  0
 23 24  1  0  0  0
 23 25  1  0  0  0
 25 26  1  0  0  0
 25 27  2  0  0  0
 27 28  1  0  0  0
 29 30  1  0  0  0
 29 31  1  0  0  0
 31 32  1  0  0  0
 31 50  2  0  0  0
 32 33  1  0  0  0
 32 34  1  0  0  0
 34 42  1  0  0  0
 34 35  2  0  0  0
 35 36  1  0  0  0
 35 37  1  0  0  0
 37 38  2  0  0  0
 38 39  1  0  0  0
 38 40  1  0  0  0
 40 41  1  0  0  0
 40 42  2  0  0  0
 42 43  1  0  0  0
 43 44  2  0  0  0
 43 45  2  0  0  0
 43 46  1  0  0  0
 46 47  1  0  0  0
 46 48  1  0  0  0
 46 49  1  0  0  0
 50 51  1  0  0  0
M  END
> <s_m_source_file>
ligprep_pfkfb3.smi

> <i_m_source_file_index>
14

> <i_lp_mmshare_version>
53161

> <i_f3d_flags>
0

> <s_epik_input>
W2NIXTFbY0hdW2NIXWMoTihbQ0gzXSlbQ0gzXSlbY0hdYzEtYyhjKGMyMyluW2NIXVtjSF1uMilbY0hdYyhbY0hdMylbTkhdYzRbY0hdbltjSF1bY0hdYzRTKD1PKSg9TylbQ0gzXQ==

> <s_epik_cmdline>
J2VwaWtfcHl0aG9uJywgJy1waHQnLCAnMC4wJywgJy1waCcsICc3LjQnLCAnLXRuJywgJzgnLCAnLW1hJywgJzUwMCcsICctaW1hZScsICc8aW5maWxlLm1hZT4nLCAnLW9tYWUnLCAnPG91dGZpbGUubWFlPic=

> <r_lp_tautomer_probability>
1

> <r_epik_Ionization_Penalty>
0.0014

> <r_epik_Ionization_Penalty_Charging>
0

> <r_epik_Ionization_Penalty_Neutral>
0.0014

> <r_epik_State_Penalty>
-0

> <r_epik_Charging_Adjusted_Penalty>
0

> <i_epik_Tot_Q>
0

> <i_epik_Tot_abs_Q>
0

> <s_lp_Force_Field>
S-OPLS

> <r_lp_Energy>
64.0945

> <b_lp_Chiralities_Consistent>
1

> <s_lp_Variant>
lig_38-1

> <s_i_glide_gridfile>
glide-grid_6HVI-PFKFB3

> <i_i_glide_lignum>
14

> <i_i_glide_rotatable_bonds>
5

> <r_i_docking_score>
-11.1463

> <r_i_glide_ligand_efficiency>
-0.371545

> <r_i_glide_ligand_efficiency_sa>
-1.15448

> <r_i_glide_ligand_efficiency_ln>
-2.53257

> <r_i_glide_gscore>
-11.1463

> <r_i_glide_lipo>
-5.92795

> <r_i_glide_hbond>
-0.32

> <r_i_glide_metal>
-0

> <r_i_glide_rewards>
-1.4265

> <r_i_glide_evdw>
-61.3901

> <r_i_glide_ecoul>
-5.91551

> <r_i_glide_erotb>
0.562105

> <r_i_glide_esite>
-0.0771642

> <r_i_glide_emodel>
-115.382

> <r_i_glide_energy>
-67.3057

> <r_i_glide_einternal>
-4.99802e-07

> <i_i_glide_confnum>
3

> <i_i_glide_posenum>
3

> <r_i_glide_eff_state_penalty>
-0

> <r_i_glide_rmsd>
0.0823183

> <s_glide_core_constrain_type>
snapped_core_restrain
$$$$