lig_E29
                    3D
 Schrodinger Suite 2021-1.
 47 49  0  0  1  0            999 V2000
   18.8258   39.9985    3.7807 H   0  0  0  0  0  0
   18.7062   40.1463    4.8462 C   0  0  0  0  0  0
   19.7473   40.5858    5.5766 C   0  0  0  0  0  0
   21.0101   40.8692    4.8838 C   0  0  0  0  0  0
   20.9968   41.8843    3.9931 N   0  0  0  0  0  0
   22.1373   42.0870    3.2972 C   0  0  0  0  0  0
   22.0689   42.8543    2.5445 H   0  0  0  0  0  0
   23.3082   41.3036    3.4883 C   0  0  0  0  0  0
   24.4679   41.4648    2.6939 N   0  0  0  0  0  0
   25.5962   40.5307    2.8043 C   0  0  0  0  0  0
   25.9150   40.2437    1.8032 H   0  0  0  0  0  0
   25.3222   39.5863    3.2701 H   0  0  0  0  0  0
   26.7746   41.1787    3.5625 C   0  0  0  0  0  0
   27.6296   40.5006    3.5546 H   0  0  0  0  0  0
   26.4793   41.2789    4.6090 H   0  0  0  0  0  0
   27.1747   42.5616    2.9875 C   0  0  0  0  0  0
   27.8827   42.4269    1.6275 C   0  0  0  0  0  0
   28.8161   41.8733    1.7223 H   0  0  0  0  0  0
   28.1294   43.4050    1.2174 H   0  0  0  0  0  0
   27.2717   41.9112    0.8903 H   0  0  0  0  0  0
   28.1198   43.2251    3.9031 N   0  3  0  0  0  0
   28.9903   42.7102    3.9428 H   0  0  0  0  0  0
   28.3030   44.1636    3.5587 H   0  0  0  0  0  0
   25.9095   43.4412    2.8735 C   0  0  0  0  0  0
   25.5312   43.6886    3.8687 H   0  0  0  0  0  0
   26.1464   44.3913    2.3991 H   0  0  0  0  0  0
   24.7844   42.7543    2.0856 C   0  0  0  0  0  0
   25.0979   42.5936    1.0527 H   0  0  0  0  0  0
   23.9388   43.4326    2.0206 H   0  0  0  0  0  0
   23.3127   40.3241    4.4218 N   0  0  0  0  0  0
   22.1701   40.0858    5.0963 C   0  0  0  0  0  0
   22.1928   39.0048    5.9713 N   0  0  0  0  0  0
   21.3806   38.7147    6.4936 H   0  0  0  0  0  0
   23.0539   38.5126    6.1850 H   0  0  0  0  0  0
   19.6163   40.8411    7.0750 C   0  0  0  0  0  0
   20.1627   40.0660    7.6099 H   0  0  0  0  0  0
   20.1008   41.7873    7.3191 H   0  0  0  0  0  0
   18.1545   40.9099    7.5500 C   0  0  0  0  0  0
   18.1124   40.8672    8.6387 H   0  0  0  0  0  0
   17.7118   41.8608    7.2599 H   0  0  0  0  0  0
   17.3232   39.7777    6.9446 C   0  0  0  0  0  0
   16.2950   39.8103    7.3051 H   0  0  0  0  0  0
   17.7332   38.8287    7.2917 H   0  0  0  0  0  0
   17.3425   39.8089    5.4068 C   0  0  0  0  0  0
   16.6255   40.5342    5.0309 H   0  0  0  0  0  0
   17.0455   38.8373    5.0083 H   0  0  0  0  0  0
   27.7280   43.2905    4.8308 H   0  0  0  0  0  0
  1  2  1  0  0  0
  2 44  1  0  0  0
  2  3  2  0  0  0
  3  4  1  0  0  0
  3 35  1  0  0  0
  4 31  1  0  0  0
  4  5  2  0  0  0
  5  6  1  0  0  0
  6  7  1  0  0  0
  6  8  2  0  0  0
  8  9  1  0  0  0
  8 30  1  0  0  0
  9 27  1  0  0  0
  9 10  1  0  0  0
 10 11  1  0  0  0
 10 12  1  0  0  0
 10 13  1  0  0  0
 13 14  1  0  0  0
 13 15  1  0  0  0
 13 16  1  0  0  0
 16 17  1  0  0  0
 16 21  1  0  0  0
 16 24  1  0  0  0
 17 18  1  0  0  0
 17 19  1  0  0  0
 17 20  1  0  0  0
 21 22  1  0  0  0
 21 23  1  0  0  0
 21 47  1  0  0  0
 24 25  1  0  0  0
 24 26  1  0  0  0
 24 27  1  0  0  0
 27 28  1  0  0  0
 27 29  1  0  0  0
 30 31  2  0  0  0
 31 32  1  0  0  0
 32 33  1  0  0  0
 32 34  1  0  0  0
 35 36  1  0  0  0
 35 37  1  0  0  0
 35 38  1  0  0  0
 38 39  1  0  0  0
 38 40  1  0  0  0
 38 41  1  0  0  0
 41 42  1  0  0  0
 41 43  1  0  0  0
 41 44  1  0  0  0
 44 45  1  0  0  0
 44 46  1  0  0  0
M  CHG  1  21   1
M  END
> <s_m_source_file>
ligprep_shp2.smi

> <i_m_source_file_index>
17

> <i_lp_mmshare_version>
53161

> <i_f3d_flags>
0

> <s_epik_input>
W0NIMl0xW0NIMl1bQ0gyXVtDSDJdW0NIXT1DMWMybltjSF1jKG5jMltOSDJdKU4oW0NIMl1bQ0gyXTMpW0NIMl1bQ0gyXUMzKFtDSDNdKVtOSDJd

> <s_epik_cmdline>
J2VwaWtfcHl0aG9uJywgJy1waHQnLCAnMC4wJywgJy1waCcsICc3LjQnLCAnLXRuJywgJzgnLCAnLW1hJywgJzUwMCcsICctaW1hZScsICc8aW5maWxlLm1hZT4nLCAnLW9tYWUnLCAnPG91dGZpbGUubWFlPic=

> <r_lp_tautomer_probability>
1

> <r_epik_Ionization_Penalty>
0.0133

> <r_epik_Ionization_Penalty_Charging>
0.013

> <r_epik_Ionization_Penalty_Neutral>
0.0002

> <r_epik_State_Penalty>
-0

> <r_epik_Charging_Adjusted_Penalty>
0.0130287

> <i_epik_Tot_Q>
1

> <i_epik_Tot_abs_Q>
1

> <s_lp_Force_Field>
S-OPLS

> <r_lp_Energy>
44.1763

> <b_lp_Chiralities_Consistent>
1

> <s_lp_Variant>
lig_E29-1

> <s_i_glide_gridfile>
glide-grid_5EHR-SHP2

> <i_i_glide_lignum>
17

> <i_i_glide_rotatable_bonds>
2

> <r_i_docking_score>
-8.47466

> <r_i_glide_ligand_efficiency>
-0.403555

> <r_i_glide_ligand_efficiency_sa>
-1.11338

> <r_i_glide_ligand_efficiency_ln>
-2.09534

> <r_i_glide_gscore>
-8.47466

> <r_i_glide_lipo>
-2.60011

> <r_i_glide_hbond>
-0.442628

> <r_i_glide_metal>
-0

> <r_i_glide_rewards>
-1.72445

> <r_i_glide_evdw>
-45.2426

> <r_i_glide_ecoul>
-12.5517

> <r_i_glide_erotb>
0.437414

> <r_i_glide_esite>
0

> <r_i_glide_emodel>
-96.2578

> <r_i_glide_energy>
-57.7943

> <r_i_glide_einternal>
0.80464

> <i_i_glide_confnum>
1

> <i_i_glide_posenum>
13

> <r_i_glide_eff_state_penalty>
-0

> <r_i_glide_rmsd>
0.0848088

> <s_glide_core_constrain_type>
snapped_core_restrain
$$$$