lig_34
                    3D
 Schrodinger Suite 2021-1.
 45 48  0  0  1  0            999 V2000
   29.5700   16.0814    8.4755 H   0  0  0  0  0  0
   29.0525   16.7718    9.1235 C   0  0  0  0  0  0
   29.7708   17.8554    9.4832 N   0  0  0  0  0  0
   29.1753   18.7735   10.2659 C   0  0  0  0  0  0
   29.7633   19.6437   10.5183 H   0  0  0  0  0  0
   27.8603   18.6404   10.7401 C   0  0  0  0  0  0
   27.1736   19.8675   11.7377 Cl  0  0  0  0  0  0
   27.1242   17.4986   10.3643 C   0  0  0  0  0  0
   26.1130   17.3751   10.7209 H   0  0  0  0  0  0
   27.7174   16.5261    9.5223 C   0  0  0  0  0  0
   26.9884   15.3206    9.0596 C   0  0  0  0  0  0
   27.6749   14.1153    8.7865 C   0  0  0  0  0  0
   28.7437   14.0476    8.9333 H   0  0  0  0  0  0
   26.9913   12.9755    8.3289 C   0  0  0  0  0  0
   27.5468   12.0705    8.1312 H   0  0  0  0  0  0
   25.5966   13.0004    8.1399 C   0  0  0  0  0  0
   24.9792   11.8361    7.7313 O   0  0  0  0  0  0
   23.5735   11.7217    7.9633 C   0  0  0  0  0  0
   23.3116   11.4738    9.4656 C   0  0  0  0  0  0
   22.2423   11.4320    9.6787 H   0  0  0  0  0  0
   23.7440   10.5270    9.7904 H   0  0  0  0  0  0
   23.7357   12.2541   10.1008 H   0  0  0  0  0  0
   23.1145   10.4943    7.1650 C   0  0  0  0  0  0
   22.0514   10.3034    7.3143 H   0  0  0  0  0  0
   23.2800   10.6359    6.0979 H   0  0  0  0  0  0
   23.6630    9.6030    7.4690 H   0  0  0  0  0  0
   22.8612   12.9741    7.4226 C   0  0  0  0  0  0
   21.7786   12.8902    7.5416 H   0  0  0  0  0  0
   23.0501   13.0109    6.3493 H   0  0  0  0  0  0
   23.3813   14.2808    8.0570 C   0  0  1  0  0  0
   23.0313   15.4854    7.1683 C   0  0  0  0  0  0
   23.5021   15.6751    6.0432 O   0  0  0  0  0  0
   22.1596   16.2569    7.8088 N   0  0  0  0  0  0
   21.6036   17.5332    7.3672 C   0  0  0  0  0  0
   21.9485   17.8149    6.3691 H   0  0  0  0  0  0
   20.5144   17.5098    7.3593 H   0  0  0  0  0  0
   21.9196   18.3052    8.0603 H   0  0  0  0  0  0
   21.9359   15.6912    9.0496 C   0  0  0  0  0  0
   21.0764   16.3249    9.9302 N   0  0  0  0  0  0
   20.9674   16.0290   10.8998 H   0  0  0  0  0  0
   22.6010   14.6082    9.2442 N   0  0  0  0  0  0
   24.8877   14.2115    8.3596 C   0  0  0  0  0  0
   25.5909   15.3455    8.8385 C   0  0  0  0  0  0
   25.0421   16.2604    9.0136 H   0  0  0  0  0  0
   20.6241   17.2232    9.7777 H   0  0  0  0  0  0
  1  2  1  0  0  0
  2 10  1  0  0  0
  2  3  2  0  0  0
  3  4  1  0  0  0
  4  5  1  0  0  0
  4  6  2  0  0  0
  6  7  1  0  0  0
  6  8  1  0  0  0
  8  9  1  0  0  0
  8 10  2  0  0  0
 10 11  1  0  0  0
 11 43  1  0  0  0
 11 12  2  0  0  0
 12 13  1  0  0  0
 12 14  1  0  0  0
 14 15  1  0  0  0
 14 16  2  0  0  0
 16 42  1  0  0  0
 16 17  1  0  0  0
 17 18  1  0  0  0
 18 19  1  0  0  0
 18 23  1  0  0  0
 18 27  1  0  0  0
 19 20  1  0  0  0
 19 21  1  0  0  0
 19 22  1  0  0  0
 23 24  1  0  0  0
 23 25  1  0  0  0
 23 26  1  0  0  0
 27 28  1  0  0  0
 27 29  1  0  0  0
 27 30  1  0  0  0
 30 41  1  0  0  0
 30 31  1  0  0  0
 30 42  1  0  0  0
 31 32  2  0  0  0
 31 33  1  0  0  0
 33 34  1  0  0  0
 33 38  1  0  0  0
 34 35  1  0  0  0
 34 36  1  0  0  0
 34 37  1  0  0  0
 38 39  1  0  0  0
 38 41  2  0  0  0
 39 40  1  0  0  0
 39 45  1  0  0  0
 42 43  2  0  0  0
 43 44  1  0  0  0
M  END
> <s_m_source_file>
ligprep_bace_hunt.smi

> <i_m_source_file_index>
25

> <i_lp_mmshare_version>
53161

> <i_f3d_flags>
0

> <s_epik_input>
Q2xjMVtjSF1uW2NIXWMoW2NIXTEpLWMoW2NIXTIpW2NIXVtjSF1jKE9DKFtDSDNdKShbQ0gzXSlbQ0gyXTMpYzJbQ0BAXTM0Qyg9TylOKFtDSDNdKUMoPU40KVtOSDJd

> <s_epik_cmdline>
J2VwaWtfcHl0aG9uJywgJy1waHQnLCAnMC4wJywgJy1waCcsICc3LjQnLCAnLXRuJywgJzgnLCAnLW1hJywgJzUwMCcsICctaW1hZScsICc8aW5maWxlLm1hZT4nLCAnLW9tYWUnLCAnPG91dGZpbGUubWFlPic=

> <r_lp_tautomer_probability>
1

> <r_epik_Ionization_Penalty>
1.0455

> <r_epik_Ionization_Penalty_Charging>
0

> <r_epik_Ionization_Penalty_Neutral>
1.0455

> <r_epik_State_Penalty>
-0

> <r_epik_Charging_Adjusted_Penalty>
0

> <i_epik_Tot_Q>
0

> <i_epik_Tot_abs_Q>
0

> <s_epik_Chemistry_Notes>
This compound has an imine and may undergo hydrolysis.

> <s_lp_Force_Field>
S-OPLS

> <r_lp_Energy>
35.6663

> <b_lp_Chiralities_Consistent>
1

> <s_lp_Variant>
lig_34-1

> <s_i_glide_gridfile>
glide-grid_4JPC-BACE_HUNT

> <i_i_glide_lignum>
25

> <i_i_glide_rotatable_bonds>
1

> <r_i_docking_score>
-6.85922

> <r_i_glide_ligand_efficiency>
-0.263816

> <r_i_glide_ligand_efficiency_sa>
-0.781554

> <r_i_glide_ligand_efficiency_ln>
-1.61087

> <r_i_glide_gscore>
-6.85922

> <r_i_glide_lipo>
-2.45557

> <r_i_glide_hbond>
-0.25727

> <r_i_glide_metal>
-0

> <r_i_glide_rewards>
-1.22325

> <r_i_glide_evdw>
-41.2769

> <r_i_glide_ecoul>
-5.67584

> <r_i_glide_erotb>
0.140321

> <r_i_glide_esite>
-0.148223

> <r_i_glide_emodel>
-67.9058

> <r_i_glide_energy>
-46.9527

> <r_i_glide_einternal>
0.0720148

> <i_i_glide_confnum>
15

> <i_i_glide_posenum>
2

> <r_i_glide_eff_state_penalty>
-0

> <r_i_glide_rmsd>
0.0526806

> <s_glide_core_constrain_type>
snapped_core_restrain
$$$$