lig_5687
                    3D
 Schrodinger Suite 2021-1.
 63 68  0  0  1  0            999 V2000
  -17.4339  -10.4004   38.0916 H   0  0  0  0  0  0
  -17.4135   -9.6491   37.3163 C   0  0  0  0  0  0
  -16.8834   -8.4717   37.6120 N   0  0  0  0  0  0
  -16.9261   -7.7692   36.4583 N   0  0  0  0  0  0
  -16.4195   -6.4096   36.4099 C   0  0  0  0  0  0
  -16.9199   -5.8935   35.5894 H   0  0  0  0  0  0
  -16.7130   -5.8864   37.3205 H   0  0  0  0  0  0
  -14.8962   -6.3562   36.1945 C   0  0  0  0  0  0
  -14.6460   -6.9175   35.2943 H   0  0  0  0  0  0
  -14.5703   -5.3335   36.0126 H   0  0  0  0  0  0
  -14.1504   -6.9165   37.2681 O   0  0  0  0  0  0
  -14.0536   -6.0534   38.3917 C   0  0  0  0  0  0
  -13.4711   -6.5342   39.1751 H   0  0  0  0  0  0
  -13.5554   -5.1214   38.1300 H   0  0  0  0  0  0
  -15.0283   -5.8221   38.8149 H   0  0  0  0  0  0
  -17.4857   -8.5014   35.4343 C   0  0  0  0  0  0
  -17.5958   -8.0930   34.4403 H   0  0  0  0  0  0
  -17.8611   -9.7081   35.9634 C   0  0  0  0  0  0
  -18.4881  -10.8284   35.2227 C   0  0  0  0  0  0
  -18.4337  -10.8714   33.8548 C   0  0  0  0  0  0
  -17.9572  -10.0767   33.2929 H   0  0  0  0  0  0
  -18.9240  -11.8783   33.0763 N   0  0  0  0  0  0
  -19.4678  -12.9172   33.6417 C   0  0  0  0  0  0
  -19.8827  -13.9503   32.7686 N   0  0  0  0  0  0
  -19.4048  -13.9804   31.3842 C   0  0  0  0  0  0
  -20.0287  -13.3239   30.7771 H   0  0  0  0  0  0
  -18.3790  -13.6141   31.3169 H   0  0  0  0  0  0
  -19.4498  -15.4147   30.8310 C   0  0  0  0  0  0
  -18.7372  -16.0579   31.3503 H   0  0  0  0  0  0
  -19.1657  -15.4200   29.7775 H   0  0  0  0  0  0
  -20.7686  -15.9315   30.9652 O   0  0  0  0  0  0
  -21.1702  -16.0040   32.3317 C   0  0  0  0  0  0
  -20.5087  -16.6786   32.8796 H   0  0  0  0  0  0
  -22.1681  -16.4406   32.3858 H   0  0  0  0  0  0
  -21.1718  -14.5979   32.9675 C   0  0  0  0  0  0
  -21.4580  -14.6775   34.0127 H   0  0  0  0  0  0
  -21.9389  -13.9883   32.4901 H   0  0  0  0  0  0
  -19.6005  -13.0016   35.0720 C   0  0  0  0  0  0
  -20.0926  -13.9358   35.8936 N   0  0  0  0  0  0
  -20.0030  -13.4049   37.1644 C   0  0  0  0  0  0
  -20.5868  -14.0845   38.3241 C   0  0  0  0  0  0
  -20.7034  -15.1515   38.2247 H   0  0  0  0  0  0
  -20.9442  -13.4582   39.4608 C   0  0  0  0  0  0
  -20.8203  -12.3868   39.5123 H   0  0  0  0  0  0
  -21.4763  -14.0854   40.6790 C   0  0  0  0  0  0
  -21.9137  -13.2369   41.6336 N   0  0  0  0  0  0
  -22.3387  -13.7290   42.8178 C   0  0  0  0  0  0
  -22.7947  -12.8505   43.8223 C   0  0  0  0  0  0
  -22.8047  -11.7877   43.6305 H   0  0  0  0  0  0
  -23.2311  -13.3360   45.0696 C   0  0  0  0  0  0
  -23.5753  -12.6473   45.8277 H   0  0  0  0  0  0
  -23.2160  -14.7186   45.3296 C   0  0  0  0  0  0
  -23.5529  -15.0891   46.2856 H   0  0  0  0  0  0
  -22.7643  -15.6147   44.3433 C   0  0  0  0  0  0
  -22.7593  -16.6757   44.5474 H   0  0  0  0  0  0
  -22.3315  -15.1227   43.0963 C   0  0  0  0  0  0
  -21.8867  -16.0090   42.0973 C   0  0  0  0  0  0
  -21.8631  -17.0725   42.2781 H   0  0  0  0  0  0
  -21.4880  -15.4843   40.8568 C   0  0  0  0  0  0
  -21.1452  -16.1444   40.0793 H   0  0  0  0  0  0
  -19.4308  -12.1654   37.1581 C   0  0  0  0  0  0
  -19.2448  -11.4615   37.9491 H   0  0  0  0  0  0
  -19.1124  -11.8909   35.8303 N   0  0  0  0  0  0
  1  2  1  0  0  0
  2 18  1  0  0  0
  2  3  2  0  0  0
  3  4  1  0  0  0
  4  5  1  0  0  0
  4 16  1  0  0  0
  5  6  1  0  0  0
  5  7  1  0  0  0
  5  8  1  0  0  0
  8  9  1  0  0  0
  8 10  1  0  0  0
  8 11  1  0  0  0
 11 12  1  0  0  0
 12 13  1  0  0  0
 12 14  1  0  0  0
 12 15  1  0  0  0
 16 17  1  0  0  0
 16 18  2  0  0  0
 18 19  1  0  0  0
 19 63  1  0  0  0
 19 20  2  0  0  0
 20 21  1  0  0  0
 20 22  1  0  0  0
 22 23  2  0  0  0
 23 24  1  0  0  0
 23 38  1  0  0  0
 24 35  1  0  0  0
 24 25  1  0  0  0
 25 26  1  0  0  0
 25 27  1  0  0  0
 25 28  1  0  0  0
 28 29  1  0  0  0
 28 30  1  0  0  0
 28 31  1  0  0  0
 31 32  1  0  0  0
 32 33  1  0  0  0
 32 34  1  0  0  0
 32 35  1  0  0  0
 35 36  1  0  0  0
 35 37  1  0  0  0
 38 63  1  0  0  0
 38 39  2  0  0  0
 39 40  1  0  0  0
 40 41  1  0  0  0
 40 61  2  0  0  0
 41 42  1  0  0  0
 41 43  2  0  0  0
 43 44  1  0  0  0
 43 45  1  0  0  0
 45 59  1  0  0  0
 45 46  2  0  0  0
 46 47  1  0  0  0
 47 56  2  0  0  0
 47 48  1  0  0  0
 48 49  1  0  0  0
 48 50  2  0  0  0
 50 51  1  0  0  0
 50 52  1  0  0  0
 52 53  1  0  0  0
 52 54  2  0  0  0
 54 55  1  0  0  0
 54 56  1  0  0  0
 56 57  1  0  0  0
 57 58  1  0  0  0
 57 59  2  0  0  0
 59 60  1  0  0  0
 61 62  1  0  0  0
 61 63  1  0  0  0
M  END
> <s_m_source_file>
ligprep_pde10.smi

> <i_m_source_file_index>
25

> <i_lp_mmshare_version>
53161

> <i_f3d_flags>
0

> <s_epik_input>
W0NIMl0xW0NIMl1PW0NIMl1bQ0gyXU4xYzJuW2NIXWMoLWMoW2NIXTMpW2NIXW5uM1tDSDJdW0NIMl1PW0NIM10pbihjMjQpW2NIXWMobjQpL1tDSF09W0NIXS9jKG41KVtjSF1bY0hdYyhjNTYpW2NIXVtjSF1bY0hdW2NIXTY=

> <s_epik_cmdline>
J2VwaWtfcHl0aG9uJywgJy1waHQnLCAnMC4wJywgJy1waCcsICc3LjQnLCAnLXRuJywgJzgnLCAnLW1hJywgJzUwMCcsICctaW1hZScsICc8aW5maWxlLm1hZT4nLCAnLW9tYWUnLCAnPG91dGZpbGUubWFlPic=

> <r_lp_tautomer_probability>
1

> <r_epik_Ionization_Penalty>
0.0007

> <r_epik_Ionization_Penalty_Charging>
0.0002

> <r_epik_Ionization_Penalty_Neutral>
0.0005

> <r_epik_State_Penalty>
-0

> <r_epik_Charging_Adjusted_Penalty>
0.000162342

> <i_epik_Tot_Q>
0

> <i_epik_Tot_abs_Q>
0

> <s_lp_Force_Field>
S-OPLS

> <r_lp_Energy>
50.2587

> <b_lp_Chiralities_Consistent>
1

> <s_lp_Variant>
lig_5687-1

> <s_i_glide_gridfile>
glide-grid_4BBX-PDE10

> <i_i_glide_lignum>
26

> <i_i_glide_rotatable_bonds>
7

> <r_i_docking_score>
-7.00284

> <r_i_glide_ligand_efficiency>
-0.194523

> <r_i_glide_ligand_efficiency_sa>
-0.642302

> <r_i_glide_ligand_efficiency_ln>
-1.52783

> <r_i_glide_gscore>
-7.00284

> <r_i_glide_lipo>
-4.07832

> <r_i_glide_hbond>
-0.249218

> <r_i_glide_metal>
-0

> <r_i_glide_rewards>
-0.452586

> <r_i_glide_evdw>
-48.8621

> <r_i_glide_ecoul>
-2.0302

> <r_i_glide_erotb>
0.524917

> <r_i_glide_esite>
0

> <r_i_glide_emodel>
-66.1304

> <r_i_glide_energy>
-50.8923

> <r_i_glide_einternal>
6.63325

> <i_i_glide_confnum>
102

> <i_i_glide_posenum>
128

> <r_i_glide_eff_state_penalty>
-0

> <r_i_glide_rmsd>
0.0951322

> <s_glide_core_constrain_type>
snapped_core_restrain
$$$$