lig_CHEMBL3265030_n
                    3D
 Schrodinger Suite 2021-1.
 53 58  0  0  1  0            999 V2000
   -5.5925   -4.4058   11.6389 H   0  0  0  0  0  0
   -5.1022   -4.8048   12.3454 O   0  0  0  0  0  0
   -5.1403   -3.9046   13.4321 C   0  0  1  0  0  0
   -6.6045   -3.8094   13.8620 C   0  0  0  0  0  0
   -6.7337   -3.1478   14.7185 H   0  0  0  0  0  0
   -6.9982   -4.7850   14.1515 H   0  0  0  0  0  0
   -7.2369   -3.4280   13.0594 H   0  0  0  0  0  0
   -4.0812   -4.1434   14.5119 C   0  0  0  0  0  0
   -4.4666   -4.5529   15.4464 H   0  0  0  0  0  0
   -3.2133   -4.7045   14.1562 H   0  0  0  0  0  0
   -3.8550   -2.6970   14.5618 N   0  3  1  0  0  0
   -2.4390   -2.2169   14.7984 C   0  0  0  0  0  0
   -1.9105   -1.1442   14.0499 C   0  0  0  0  0  0
   -2.5187   -0.5980   13.3445 H   0  0  0  0  0  0
   -0.5490   -0.8065   14.1832 C   0  0  0  0  0  0
   -0.1712    0.0083   13.5881 H   0  0  0  0  0  0
    0.2867   -1.5374   15.0621 C   0  0  0  0  0  0
    1.6530   -1.3024   15.2634 N   0  0  0  0  0  0
    2.0737   -1.8617   15.9963 H   0  0  0  0  0  0
    2.5775   -0.4288   14.6737 C   0  0  0  0  0  0
    2.2507    0.3504   13.6813 N   0  0  0  0  0  0
    3.1843    1.2356   13.1817 C   0  0  0  0  0  0
    2.7209    2.1351   12.1026 C   0  0  0  0  0  0
    3.6043    2.5608   11.0799 C   0  0  0  0  0  0
    4.6284    2.2183   11.0759 H   0  0  0  0  0  0
    3.1738    3.4048   10.0347 C   0  0  0  0  0  0
    3.8683    3.7009    9.2625 H   0  0  0  0  0  0
    1.8389    3.8616    9.9827 C   0  0  0  0  0  0
    0.9668    3.4469   11.0230 C   0  0  0  0  0  0
    1.3885    2.6055   12.0670 C   0  0  0  0  0  0
    0.6909    2.3273   12.8436 H   0  0  0  0  0  0
   -0.2347    4.0533   10.7055 N   0  0  0  0  0  0
   -1.0836    4.0019   11.2490 H   0  0  0  0  0  0
   -0.1948    4.7865    9.5645 N   0  0  0  0  0  0
    1.0380    4.6858    9.1271 C   0  0  0  0  0  0
    1.3268    5.2028    8.2238 H   0  0  0  0  0  0
    4.4706    1.3073   13.6601 C   0  0  0  0  0  0
    5.2222    2.0064   13.3101 H   0  0  0  0  0  0
    4.7970    0.5052   14.7029 N   0  0  0  0  0  0
    3.8723   -0.4064   15.2600 C   0  0  0  0  0  0
    4.4146   -1.0415   16.2976 N   0  0  0  0  0  0
    5.6809   -0.4937   16.4513 C   0  0  0  0  0  0
    6.3086   -0.8064   17.2681 H   0  0  0  0  0  0
    5.9513    0.4001   15.4520 C   0  0  0  0  0  0
    6.8147    1.0051   15.2198 H   0  0  0  0  0  0
   -0.2707   -2.5825   15.8264 C   0  0  0  0  0  0
    0.3475   -3.1427   16.5156 H   0  0  0  0  0  0
   -1.6295   -2.9180   15.7156 C   0  0  0  0  0  0
   -2.0203   -3.7361   16.3041 H   0  0  0  0  0  0
   -4.3624   -2.6134   13.1904 C   0  0  0  0  0  0
   -3.5812   -2.7243   12.4345 H   0  0  0  0  0  0
   -4.9769   -1.7403   12.9886 H   0  0  0  0  0  0
   -4.5098   -2.2938   15.2160 H   0  0  0  0  0  0
  1  2  1  0  0  0
  2  3  1  0  0  0
  3 50  1  0  0  0
  3  4  1  0  0  0
  3  8  1  0  0  0
  4  5  1  0  0  0
  4  6  1  0  0  0
  4  7  1  0  0  0
  8  9  1  0  0  0
  8 10  1  0  0  0
  8 11  1  0  0  0
 11 12  1  0  0  0
 11 50  1  0  0  0
 11 53  1  0  0  0
 12 48  1  0  0  0
 12 13  2  0  0  0
 13 14  1  0  0  0
 13 15  1  0  0  0
 15 16  1  0  0  0
 15 17  2  0  0  0
 17 18  1  0  0  0
 17 46  1  0  0  0
 18 19  1  0  0  0
 18 20  1  0  0  0
 20 40  1  0  0  0
 20 21  2  0  0  0
 21 22  1  0  0  0
 22 23  1  0  0  0
 22 37  2  0  0  0
 23 30  1  0  0  0
 23 24  2  0  0  0
 24 25  1  0  0  0
 24 26  1  0  0  0
 26 27  1  0  0  0
 26 28  2  0  0  0
 28 35  1  0  0  0
 28 29  1  0  0  0
 29 30  2  0  0  0
 29 32  1  0  0  0
 30 31  1  0  0  0
 32 33  1  0  0  0
 32 34  1  0  0  0
 34 35  2  0  0  0
 35 36  1  0  0  0
 37 38  1  0  0  0
 37 39  1  0  0  0
 39 44  1  0  0  0
 39 40  1  0  0  0
 40 41  2  0  0  0
 41 42  1  0  0  0
 42 43  1  0  0  0
 42 44  2  0  0  0
 44 45  1  0  0  0
 46 47  1  0  0  0
 46 48  2  0  0  0
 48 49  1  0  0  0
 50 51  1  0  0  0
 50 52  1  0  0  0
M  CHG  1  11   1
M  END
> <s_m_source_file>
ligprep_syk.smi

> <i_m_source_file_index>
37

> <i_lp_mmshare_version>
53161

> <i_f3d_flags>
0

> <s_epik_input>
W09IXUMxKFtDSDNdKVtDSDJdTihbQ0gyXTEpYzJbY0hdW2NIXWMoW2NIXVtjSF0yKVtOSF1jKGMobjM0KW5bY0hdW2NIXTQpbmMoW2NIXTMpLWMoW2NIXVtjSF01KVtjSF1jKGM1NilbbkhdbltjSF02

> <s_epik_cmdline>
J2VwaWtfcHl0aG9uJywgJy1waHQnLCAnMC4wJywgJy1waCcsICc3LjQnLCAnLXRuJywgJzgnLCAnLW1hJywgJzUwMCcsICctaW1hZScsICc8aW5maWxlLm1hZT4nLCAnLW9tYWUnLCAnPG91dGZpbGUubWFlPic=

> <r_lp_tautomer_probability>
1

> <r_epik_Ionization_Penalty>
0.0068

> <r_epik_Ionization_Penalty_Charging>
0.0068

> <r_epik_Ionization_Penalty_Neutral>
0

> <r_epik_State_Penalty>
-0

> <r_epik_Charging_Adjusted_Penalty>
0.00681491

> <i_epik_Tot_Q>
1

> <i_epik_Tot_abs_Q>
1

> <s_lp_Force_Field>
S-OPLS

> <r_lp_Energy>
50.1693

> <b_lp_Chiralities_Consistent>
1

> <s_lp_Variant>
lig_CHEMBL3265030_n-1

> <s_i_glide_gridfile>
glide-grid_4PV0-SYK

> <i_i_glide_lignum>
37

> <i_i_glide_rotatable_bonds>
5

> <r_i_docking_score>
-7.5568

> <r_i_glide_ligand_efficiency>
-0.243768

> <r_i_glide_ligand_efficiency_sa>
-0.765768

> <r_i_glide_ligand_efficiency_ln>
-1.70429

> <r_i_glide_gscore>
-7.5568

> <r_i_glide_lipo>
-2.81559

> <r_i_glide_hbond>
-0.287468

> <r_i_glide_metal>
-0

> <r_i_glide_rewards>
-2.0284

> <r_i_glide_evdw>
-44.0573

> <r_i_glide_ecoul>
-4.36096

> <r_i_glide_erotb>
0.463629

> <r_i_glide_esite>
-0.0319748

> <r_i_glide_emodel>
-65.3942

> <r_i_glide_energy>
-48.4182

> <r_i_glide_einternal>
1.06988

> <i_i_glide_confnum>
22

> <i_i_glide_posenum>
29

> <r_i_glide_eff_state_penalty>
-0

> <r_i_glide_rmsd>
0.0917616

> <s_glide_core_constrain_type>
snapped_core_restrain
$$$$