lig_p38a_2e
                    3D
 Schrodinger Suite 2021-1.
 46 49  0  0  1  0            999 V2000
   20.7174    7.8354   30.7550 H   0  0  0  0  0  0
   21.5942    8.4527   30.8838 C   0  0  0  0  0  0
   22.7896    7.8234   30.9152 N   0  0  0  0  0  0
   23.8602    8.5947   31.0834 C   0  0  0  0  0  0
   25.0787    7.9502   31.1555 N   0  0  0  0  0  0
   25.0848    6.9359   31.1234 H   0  0  0  0  0  0
   26.3485    8.6552   31.2732 C   0  0  0  0  0  0
   26.1889    9.5879   31.8155 H   0  0  0  0  0  0
   27.3676    7.8498   32.0868 C   0  0  0  0  0  0
   26.9692    7.6102   33.0726 H   0  0  0  0  0  0
   27.5964    6.9030   31.5939 H   0  0  0  0  0  0
   28.6445    8.6865   32.2275 C   0  0  0  0  0  0
   28.4573    9.5898   32.8111 H   0  0  0  0  0  0
   29.4161    8.1204   32.7491 H   0  0  0  0  0  0
   29.1175    9.0335   30.9351 O   0  0  0  0  0  0
   28.1752    9.7516   30.1386 C   0  0  0  0  0  0
   27.9938   10.7518   30.5362 H   0  0  0  0  0  0
   28.5226    9.8234   29.1358 H   0  0  0  0  0  0
   26.8980    8.9772   29.9158 C   0  0  0  0  0  0
   27.0926    8.0648   29.3516 H   0  0  0  0  0  0
   26.1920    9.5710   29.3339 H   0  0  0  0  0  0
   23.8598    9.9170   31.2202 N   0  0  0  0  0  0
   22.6827   10.5701   31.2232 C   0  0  0  0  0  0
   21.4852    9.8493   31.0496 C   0  0  0  0  0  0
   20.2228   10.5827   31.0817 C   0  0  0  0  0  0
   19.3185   10.0147   30.9169 H   0  0  0  0  0  0
   20.2061   11.9178   31.3064 C   0  0  0  0  0  0
   19.0659   12.6855   31.3350 O   0  0  0  0  0  0
   17.8168   12.1337   31.2551 C   0  0  0  0  0  0
   17.0251   12.4420   30.1349 C   0  0  0  0  0  0
   17.4264   13.0619   29.3461 H   0  0  0  0  0  0
   15.7204   11.9315   30.0262 C   0  0  0  0  0  0
   15.1219   12.1466   29.1539 H   0  0  0  0  0  0
   15.1962   11.1345   31.0574 C   0  0  0  0  0  0
   13.9531   10.6232   30.9350 F   0  0  0  0  0  0
   15.9667   10.8593   32.2034 C   0  0  0  0  0  0
   15.5582   10.2488   32.9962 H   0  0  0  0  0  0
   17.2820   11.3540   32.3017 C   0  0  0  0  0  0
   17.8764   11.1376   33.1779 H   0  0  0  0  0  0
   21.4460   12.6726   31.4986 C   0  0  0  0  0  0
   21.4125   13.8827   31.7267 O   0  0  0  0  0  0
   22.6190   11.9846   31.4209 N   0  0  0  0  0  0
   23.8976   12.6986   31.5804 C   0  0  0  0  0  0
   24.4068   12.3563   32.4829 H   0  0  0  0  0  0
   24.5531   12.4919   30.7321 H   0  0  0  0  0  0
   23.8181   13.7848   31.6512 H   0  0  0  0  0  0
  1  2  1  0  0  0
  2 24  1  0  0  0
  2  3  2  0  0  0
  3  4  1  0  0  0
  4  5  1  0  0  0
  4 22  2  0  0  0
  5  6  1  0  0  0
  5  7  1  0  0  0
  7 19  1  0  0  0
  7  8  1  0  0  0
  7  9  1  0  0  0
  9 10  1  0  0  0
  9 11  1  0  0  0
  9 12  1  0  0  0
 12 13  1  0  0  0
 12 14  1  0  0  0
 12 15  1  0  0  0
 15 16  1  0  0  0
 16 17  1  0  0  0
 16 18  1  0  0  0
 16 19  1  0  0  0
 19 20  1  0  0  0
 19 21  1  0  0  0
 22 23  1  0  0  0
 23 42  1  0  0  0
 23 24  2  0  0  0
 24 25  1  0  0  0
 25 26  1  0  0  0
 25 27  2  0  0  0
 27 28  1  0  0  0
 27 40  1  0  0  0
 28 29  1  0  0  0
 29 38  1  0  0  0
 29 30  2  0  0  0
 30 31  1  0  0  0
 30 32  1  0  0  0
 32 33  1  0  0  0
 32 34  2  0  0  0
 34 35  1  0  0  0
 34 36  1  0  0  0
 36 37  1  0  0  0
 36 38  2  0  0  0
 38 39  1  0  0  0
 40 41  2  0  0  0
 40 42  1  0  0  0
 42 43  1  0  0  0
 43 44  1  0  0  0
 43 45  1  0  0  0
 43 46  1  0  0  0
M  END
> <s_m_source_file>
ligprep_p38.smi

> <i_m_source_file_index>
4

> <i_lp_mmshare_version>
53161

> <i_f3d_flags>
0

> <s_epik_input>
W0NIMl0xW0NIMl1PW0NIMl1bQ0gyXVtDSF0xW05IXWMobjIpbltjSF1jKGMyMylbY0hdYyhjKD1PKW4zW0NIM10pT2M0W2NIXVtjSF1jKEYpW2NIXVtjSF00

> <s_epik_cmdline>
J2VwaWtfcHl0aG9uJywgJy1waHQnLCAnMC4wJywgJy1waCcsICc3LjQnLCAnLXRuJywgJzgnLCAnLW1hJywgJzUwMCcsICctaW1hZScsICc8aW5maWxlLm1hZT4nLCAnLW9tYWUnLCAnPG91dGZpbGUubWFlPic=

> <r_lp_tautomer_probability>
1

> <r_epik_Ionization_Penalty>
0

> <r_epik_Ionization_Penalty_Charging>
0

> <r_epik_Ionization_Penalty_Neutral>
0

> <r_epik_State_Penalty>
-0

> <r_epik_Charging_Adjusted_Penalty>
1.64235e-06

> <i_epik_Tot_Q>
0

> <i_epik_Tot_abs_Q>
0

> <s_epik_Chemistry_Notes>
This compound has an imine and may undergo hydrolysis.

> <s_lp_Force_Field>
S-OPLS

> <r_lp_Energy>
52.5064

> <b_lp_Chiralities_Consistent>
1

> <s_lp_Variant>
lig_p38a_2e-1

> <s_i_glide_gridfile>
glide-grid_3FLY-P38

> <i_i_glide_lignum>
4

> <i_i_glide_rotatable_bonds>
4

> <r_i_docking_score>
-10.4354

> <r_i_glide_ligand_efficiency>
-0.386498

> <r_i_glide_ligand_efficiency_sa>
-1.15949

> <r_i_glide_ligand_efficiency_ln>
-2.4292

> <r_i_glide_gscore>
-10.4354

> <r_i_glide_lipo>
-3.42138

> <r_i_glide_hbond>
-1.18599

> <r_i_glide_metal>
-0

> <r_i_glide_rewards>
-2.57915

> <r_i_glide_evdw>
-40.116

> <r_i_glide_ecoul>
-12.0375

> <r_i_glide_erotb>
0.562516

> <r_i_glide_esite>
0

> <r_i_glide_emodel>
-84.5139

> <r_i_glide_energy>
-52.1535

> <r_i_glide_einternal>
0.354585

> <i_i_glide_confnum>
6

> <i_i_glide_posenum>
4

> <r_i_glide_eff_state_penalty>
-0

> <r_i_glide_rmsd>
0.0850227

> <s_glide_core_constrain_type>
snapped_core_restrain
$$$$