lig_49220548
                    3D
 Schrodinger Suite 2021-1.
 58 62  0  0  1  0            999 V2000
   16.7795    3.8829  -39.9082 C   0  0  0  0  0  0
   16.5806    3.7333  -38.4117 C   0  0  0  0  0  0
   15.4843    2.7157  -38.1296 C   0  0  0  0  0  0
   14.2493    3.3792  -38.0463 O   0  0  0  0  0  0
   13.2586    2.7487  -38.7122 C   0  0  0  0  0  0
   12.0968    2.4021  -38.0101 C   0  0  0  0  0  0
   11.0416    1.7792  -38.6946 C   0  0  0  0  0  0
   11.1487    1.5209  -40.0778 C   0  0  0  0  0  0
   12.2947    1.9213  -40.8010 C   0  0  0  0  0  0
   13.3584    2.5122  -40.1003 C   0  0  0  0  0  0
   12.4439    1.6936  -42.2392 C   0  0  0  0  0  0
   13.3586    0.8561  -42.7384 N   0  0  0  0  0  0
   13.1862    0.7607  -44.1290 N   0  0  0  0  0  0
   12.1786    1.5697  -44.4216 C   0  0  0  0  0  0
   11.7696    2.1571  -43.2998 N   0  0  0  0  0  0
   10.7279    3.0998  -43.3058 C   0  0  0  0  0  0
   10.2784    3.9017  -42.2212 C   0  0  0  0  0  0
    9.2368    4.8432  -42.3366 C   0  0  0  0  0  0
    8.5821    5.0133  -43.5665 C   0  0  0  0  0  0
    9.0004    4.2638  -44.6658 C   0  0  0  0  0  0
   10.0595    3.3403  -44.5563 C   0  0  0  0  0  0
   10.4603    2.6945  -45.6828 N   0  0  0  0  0  0
   11.5128    1.8500  -45.6358 C   0  0  0  0  0  0
   11.9360    1.1899  -46.9320 C   0  0  0  0  0  0
    8.8076    5.6348  -41.1109 C   0  0  0  0  0  0
    8.3201    6.9853  -41.3972 N   0  0  0  0  0  0
    7.6501    7.5661  -40.2376 C   0  0  0  0  0  0
    7.1319    8.9854  -40.5297 C   0  0  0  0  0  0
    8.2053    9.8097  -40.9641 O   0  0  0  0  0  0
    8.8750    9.2990  -42.1097 C   0  0  0  0  0  0
    9.3953    7.8769  -41.8291 C   0  0  0  0  0  0
    9.8596    0.7053  -40.8770 Cl  0  0  0  0  0  0
   17.5137    4.6486  -40.1392 H   0  0  0  0  0  0
   15.8562    4.1926  -40.3920 H   0  0  0  0  0  0
   17.1276    2.9500  -40.3255 H   0  0  0  0  0  0
   17.5224    3.4388  -37.9536 H   0  0  0  0  0  0
   16.3203    4.6851  -37.9644 H   0  0  0  0  0  0
   15.5213    1.8962  -38.8493 H   0  0  0  0  0  0
   15.5246    2.2824  -37.1328 H   0  0  0  0  0  0
   12.0298    2.5963  -36.9495 H   0  0  0  0  0  0
   10.1468    1.4913  -38.1649 H   0  0  0  0  0  0
   14.2564    2.7775  -40.6403 H   0  0  0  0  0  0
   10.7611    3.8469  -41.2652 H   0  0  0  0  0  0
    7.7697    5.7181  -43.6672 H   0  0  0  0  0  0
    8.5122    4.4013  -45.6210 H   0  0  0  0  0  0
   12.9380    1.5197  -47.2052 H   0  0  0  0  0  0
   11.9469    0.1012  -46.8287 H   0  0  0  0  0  0
   11.2632    1.4505  -47.7502 H   0  0  0  0  0  0
    8.0193    5.0613  -40.6227 H   0  0  0  0  0  0
    9.6368    5.6811  -40.3978 H   0  0  0  0  0  0
    6.8160    6.9305  -39.9385 H   0  0  0  0  0  0
    8.3400    7.6001  -39.3907 H   0  0  0  0  0  0
    6.7108    9.4234  -39.6280 H   0  0  0  0  0  0
    6.3474    8.9634  -41.2911 H   0  0  0  0  0  0
    9.7088    9.9487  -42.3706 H   0  0  0  0  0  0
    8.2093    9.3016  -42.9767 H   0  0  0  0  0  0
   10.1832    7.9096  -41.0717 H   0  0  0  0  0  0
    9.8541    7.4905  -42.7390 H   0  0  0  0  0  0
  1  2  1  0  0  0
  1 33  1  0  0  0
  1 34  1  0  0  0
  1 35  1  0  0  0
  2  3  1  0  0  0
  2 36  1  0  0  0
  2 37  1  0  0  0
  3  4  1  0  0  0
  3 38  1  0  0  0
  3 39  1  0  0  0
  4  5  1  0  0  0
  5 10  1  0  0  0
  5  6  2  0  0  0
  6  7  1  0  0  0
  6 40  1  0  0  0
  7  8  2  0  0  0
  7 41  1  0  0  0
  8  9  1  0  0  0
  8 32  1  0  0  0
  9 10  2  0  0  0
  9 11  1  0  0  0
 10 42  1  0  0  0
 11 15  1  0  0  0
 11 12  2  0  0  0
 12 13  1  0  0  0
 13 14  2  0  0  0
 14 23  1  0  0  0
 14 15  1  0  0  0
 15 16  1  0  0  0
 16 21  1  0  0  0
 16 17  2  0  0  0
 17 18  1  0  0  0
 17 43  1  0  0  0
 18 19  2  0  0  0
 18 25  1  0  0  0
 19 20  1  0  0  0
 19 44  1  0  0  0
 20 21  2  0  0  0
 20 45  1  0  0  0
 21 22  1  0  0  0
 22 23  2  0  0  0
 23 24  1  0  0  0
 24 46  1  0  0  0
 24 47  1  0  0  0
 24 48  1  0  0  0
 25 26  1  0  0  0
 25 49  1  0  0  0
 25 50  1  0  0  0
 26 31  1  0  0  0
 26 27  1  0  0  0
 27 28  1  0  0  0
 27 51  1  0  0  0
 27 52  1  0  0  0
 28 29  1  0  0  0
 28 53  1  0  0  0
 28 54  1  0  0  0
 29 30  1  0  0  0
 30 31  1  0  0  0
 30 55  1  0  0  0
 30 56  1  0  0  0
 31 57  1  0  0  0
 31 58  1  0  0  0
M  END
> <s_m_source_file>
ligprep_pde2.smi

> <i_m_source_file_index>
12

> <i_lp_mmshare_version>
53161

> <i_f3d_flags>
0

> <s_epik_input>
W0NIM11bQ0gyXVtDSDJdT2MxW2NIXVtjSF1jKENsKWMoW2NIXTEpLWMobm4yKW4oYzIzKWM0YyhuYzNbQ0gzXSlbY0hdW2NIXWMoW2NIXTQpW0NIMl1ONVtDSDJdW0NIMl1PW0NIMl1bQ0gyXTU=

> <s_epik_cmdline>
J2VwaWtfcHl0aG9uJywgJy1waHQnLCAnMC4wJywgJy1waCcsICc3LjQnLCAnLXRuJywgJzgnLCAnLW1hJywgJzUwMCcsICctaW1hZScsICc8aW5maWxlLm1hZT4nLCAnLW9tYWUnLCAnPG91dGZpbGUubWFlPic=

> <r_lp_tautomer_probability>
1

> <r_epik_Ionization_Penalty>
0.1301

> <r_epik_Ionization_Penalty_Charging>
0

> <r_epik_Ionization_Penalty_Neutral>
0.1301

> <r_epik_State_Penalty>
0.1195

> <r_epik_Charging_Adjusted_Penalty>
0.119465

> <i_epik_Tot_Q>
0

> <i_epik_Tot_abs_Q>
0

> <s_lp_Force_Field>
S-OPLS

> <r_lp_Energy>
51.2496

> <b_lp_Chiralities_Consistent>
1

> <s_lp_Variant>
lig_49220548-1

> <s_i_glide_gridfile>
glide-grid_6C7E-PDE2

> <i_i_glide_lignum>
12

> <i_i_glide_rotatable_bonds>
6

> <r_i_docking_score>
-5.89863

> <r_i_glide_ligand_efficiency>
-0.184332

> <r_i_glide_ligand_efficiency_sa>
-0.585218

> <r_i_glide_ligand_efficiency_ln>
-1.32086

> <r_i_glide_gscore>
-6.01813

> <r_i_glide_lipo>
-3.66335

> <r_i_glide_hbond>
-0.32

> <r_i_glide_metal>
-0

> <r_i_glide_rewards>
0.113299

> <r_i_glide_evdw>
-33.033

> <r_i_glide_ecoul>
-6.13694

> <r_i_glide_erotb>
0.491076

> <r_i_glide_esite>
-0.0669626

> <r_i_glide_emodel>
-37.2977

> <r_i_glide_energy>
-39.17

> <r_i_glide_einternal>
6.91503

> <i_i_glide_confnum>
50

> <i_i_glide_posenum>
54

> <r_i_glide_eff_state_penalty>
0.1195

> <r_i_glide_rmsd>
0.0977376

> <s_glide_core_constrain_type>
snapped_core_restrain
$$$$