lig_34_L
                    3D
 Schrodinger Suite 2021-1.
 62 66  0  0  1  0            999 V2000
   11.1227   -4.6192   13.7589 H   0  0  0  0  0  0
   10.3828   -4.1879   14.4157 C   0  0  0  0  0  0
    9.8718   -3.0077   14.0023 N   0  0  0  0  0  0
    8.9615   -2.4058   14.7938 C   0  0  0  0  0  0
    8.5625   -1.4681   14.4361 H   0  0  0  0  0  0
    8.5274   -2.9454   16.0171 C   0  0  0  0  0  0
    7.7945   -2.4247   16.6202 H   0  0  0  0  0  0
    9.0710   -4.1738   16.4332 C   0  0  0  0  0  0
    8.7626   -4.6078   17.3744 H   0  0  0  0  0  0
   10.0286   -4.8246   15.6275 C   0  0  0  0  0  0
   10.6515   -6.0856   16.0677 C   0  0  0  0  0  0
   12.0546   -6.2057   16.1277 C   0  0  0  0  0  0
   12.6616   -5.3730   15.8066 H   0  0  0  0  0  0
   12.6853   -7.3602   16.6510 C   0  0  0  0  0  0
   14.2135   -7.4040   16.7918 C   0  0  2  0  0  0
   14.7968   -8.8166   17.0398 C   0  0  0  0  0  0
   15.0462   -9.6642   15.9340 C   0  0  0  0  0  0
   14.7976   -9.3431   14.9302 H   0  0  0  0  0  0
   15.6488  -10.9233   16.1019 C   0  0  0  0  0  0
   15.8359  -11.5153   15.2205 H   0  0  0  0  0  0
   16.0214  -11.3727   17.3899 C   0  0  0  0  0  0
   16.6734  -12.5666   17.6121 O   0  0  0  0  0  0
   17.3794  -13.1454   16.5213 C   0  0  0  0  0  0
   18.0029  -13.9636   16.8857 H   0  0  0  0  0  0
   16.7012  -13.5511   15.7659 H   0  0  0  0  0  0
   18.0453  -12.4180   16.0513 H   0  0  0  0  0  0
   15.7304  -10.5596   18.5070 C   0  0  0  0  0  0
   16.0922  -10.9951   19.7575 O   0  0  0  0  0  0
   17.1700  -10.2699   20.3417 C   0  0  0  0  0  0
   17.8631   -9.9231   19.5720 H   0  0  0  0  0  0
   16.7337   -9.0855   21.2085 C   0  0  0  0  0  0
   16.5275   -8.1861   20.6294 H   0  0  0  0  0  0
   15.8261   -9.3478   21.7524 H   0  0  0  0  0  0
   17.8820   -8.8651   22.2011 C   0  0  0  0  0  0
   18.5010   -8.0261   21.8815 H   0  0  0  0  0  0
   17.5039   -8.6260   23.1950 H   0  0  0  0  0  0
   18.7153  -10.1567   22.1945 C   0  0  0  0  0  0
   19.6881   -9.9549   21.7465 H   0  0  0  0  0  0
   18.8932  -10.5407   23.2001 H   0  0  0  0  0  0
   17.9436  -11.1502   21.3200 C   0  0  0  0  0  0
   17.2461  -11.7158   21.9407 H   0  0  0  0  0  0
   18.5972  -11.8619   20.8149 H   0  0  0  0  0  0
   15.1042   -9.3043   18.3332 C   0  0  0  0  0  0
   14.8774   -8.7128   19.2058 H   0  0  0  0  0  0
   14.6736   -6.3417   17.8227 C   0  0  0  0  0  0
   14.2585   -6.2574   18.9823 O   0  0  0  0  0  0
   15.5389   -5.5159   17.2410 N   0  0  0  0  0  0
   16.1623   -4.3191   17.8021 C   0  0  0  0  0  0
   15.7612   -3.4211   17.3294 H   0  0  0  0  0  0
   15.9785   -4.2446   18.8754 H   0  0  0  0  0  0
   17.2417   -4.3358   17.6475 H   0  0  0  0  0  0
   15.6428   -5.8918   15.9246 C   0  0  0  0  0  0
   16.5132   -5.2071   15.1104 N   0  0  0  0  0  0
   16.5392   -5.3723   14.1060 H   0  0  0  0  0  0
   14.8695   -6.8652   15.6028 N   0  0  0  0  0  0
   11.8759   -8.4354   17.0803 C   0  0  0  0  0  0
   12.3074   -9.3347   17.4917 H   0  0  0  0  0  0
   10.4759   -8.3495   16.9850 C   0  0  0  0  0  0
    9.8705   -9.1802   17.3138 H   0  0  0  0  0  0
    9.8699   -7.1785   16.4964 C   0  0  0  0  0  0
    8.7918   -7.1223   16.4627 H   0  0  0  0  0  0
   17.0139   -4.3581   15.3509 H   0  0  0  0  0  0
  1  2  1  0  0  0
  2 10  1  0  0  0
  2  3  2  0  0  0
  3  4  1  0  0  0
  4  5  1  0  0  0
  4  6  2  0  0  0
  6  7  1  0  0  0
  6  8  1  0  0  0
  8  9  1  0  0  0
  8 10  2  0  0  0
 10 11  1  0  0  0
 11 60  1  0  0  0
 11 12  2  0  0  0
 12 13  1  0  0  0
 12 14  1  0  0  0
 14 56  2  0  0  0
 14 15  1  0  0  0
 15 55  1  0  0  0
 15 45  1  0  0  0
 15 16  1  0  0  0
 16 43  1  0  0  0
 16 17  2  0  0  0
 17 18  1  0  0  0
 17 19  1  0  0  0
 19 20  1  0  0  0
 19 21  2  0  0  0
 21 22  1  0  0  0
 21 27  1  0  0  0
 22 23  1  0  0  0
 23 24  1  0  0  0
 23 25  1  0  0  0
 23 26  1  0  0  0
 27 28  1  0  0  0
 27 43  2  0  0  0
 28 29  1  0  0  0
 29 40  1  0  0  0
 29 30  1  0  0  0
 29 31  1  0  0  0
 31 32  1  0  0  0
 31 33  1  0  0  0
 31 34  1  0  0  0
 34 35  1  0  0  0
 34 36  1  0  0  0
 34 37  1  0  0  0
 37 38  1  0  0  0
 37 39  1  0  0  0
 37 40  1  0  0  0
 40 41  1  0  0  0
 40 42  1  0  0  0
 43 44  1  0  0  0
 45 46  2  0  0  0
 45 47  1  0  0  0
 47 48  1  0  0  0
 47 52  1  0  0  0
 48 49  1  0  0  0
 48 50  1  0  0  0
 48 51  1  0  0  0
 52 53  1  0  0  0
 52 55  2  0  0  0
 53 54  1  0  0  0
 53 62  1  0  0  0
 56 57  1  0  0  0
 56 58  1  0  0  0
 58 59  1  0  0  0
 58 60  2  0  0  0
 60 61  1  0  0  0
M  END
> <s_m_source_file>
ligprep_bace_p2.smi

> <i_m_source_file_index>
7

> <i_lp_mmshare_version>
53161

> <i_f3d_flags>
0

> <s_epik_input>
W2NIXTFbY0hdW2NIXW5bY0hdYzEtYzJbY0hdYyhbY0hdW2NIXVtjSF0yKVtDQEBdMyhDKD1PKU4oW0NIM10pQyg9TjMpW05IMl0pYzRbY0hdW2NIXWMoT1tDSDNdKWMoW2NIXTQpT1tDSF01W0NIMl1bQ0gyXVtDSDJdW0NIMl01

> <s_epik_cmdline>
J2VwaWtfcHl0aG9uJywgJy1waHQnLCAnMC4wJywgJy1waCcsICc3LjQnLCAnLXRuJywgJzgnLCAnLW1hJywgJzUwMCcsICctaW1hZScsICc8aW5maWxlLm1hZT4nLCAnLW9tYWUnLCAnPG91dGZpbGUubWFlPic=

> <r_lp_tautomer_probability>
1

> <r_epik_Ionization_Penalty>
0.779

> <r_epik_Ionization_Penalty_Charging>
0

> <r_epik_Ionization_Penalty_Neutral>
0.779

> <r_epik_State_Penalty>
-0

> <r_epik_Charging_Adjusted_Penalty>
0

> <i_epik_Tot_Q>
0

> <i_epik_Tot_abs_Q>
0

> <s_epik_Chemistry_Notes>
This compound has an imine and may undergo hydrolysis.

> <s_lp_Force_Field>
S-OPLS

> <r_lp_Energy>
70.005

> <b_lp_Chiralities_Consistent>
1

> <s_lp_Variant>
lig_34_L-1

> <s_i_glide_gridfile>
glide-grid_3IN4-BACE_P2

> <i_i_glide_lignum>
7

> <i_i_glide_rotatable_bonds>
6

> <r_i_docking_score>
-7.11273

> <r_i_glide_ligand_efficiency>
-0.209198

> <r_i_glide_ligand_efficiency_sa>
-0.67772

> <r_i_glide_ligand_efficiency_ln>
-1.5714

> <r_i_glide_gscore>
-7.11273

> <r_i_glide_lipo>
-2.484

> <r_i_glide_hbond>
-0.911643

> <r_i_glide_metal>
-0

> <r_i_glide_rewards>
-0.296344

> <r_i_glide_evdw>
-46.3928

> <r_i_glide_ecoul>
-10.2886

> <r_i_glide_erotb>
0.57856

> <r_i_glide_esite>
-0.136372

> <r_i_glide_emodel>
-75.2912

> <r_i_glide_energy>
-56.6814

> <r_i_glide_einternal>
9.8908

> <i_i_glide_confnum>
298

> <i_i_glide_posenum>
181

> <r_i_glide_eff_state_penalty>
-0

> <r_i_glide_rmsd>
0.0946397

> <s_glide_core_constrain_type>
snapped_core_restrain
$$$$