lig_E4
                    3D
 Schrodinger Suite 2021-1.
 43 45  0  0  1  0            999 V2000
   18.4207   40.0626    4.4980 H   0  0  0  0  0  0
   18.7286   40.3602    5.4906 C   0  0  0  0  0  0
   19.9893   40.7657    5.8369 C   0  0  0  0  0  0
   21.1649   40.9247    5.0037 C   0  0  0  0  0  0
   21.2103   41.9050    4.0005 C   0  0  0  0  0  0
   20.3720   42.5606    3.8196 H   0  0  0  0  0  0
   22.2895   42.0842    3.2222 N   0  0  0  0  0  0
   23.3458   41.2980    3.4531 C   0  0  0  0  0  0
   24.4752   41.4935    2.6557 N   0  0  0  0  0  0
   24.7639   42.7864    2.0405 C   0  0  0  0  0  0
   25.0901   42.6203    1.0141 H   0  0  0  0  0  0
   23.8812   43.4189    1.9585 H   0  0  0  0  0  0
   25.8559   43.5217    2.8322 C   0  0  0  0  0  0
   26.0583   44.4800    2.3533 H   0  0  0  0  0  0
   25.4643   43.7588    3.8237 H   0  0  0  0  0  0
   27.1459   42.6742    2.9733 C   0  0  0  0  0  0
   27.9034   42.5586    1.6388 C   0  0  0  0  0  0
   28.1692   43.5406    1.2460 H   0  0  0  0  0  0
   28.8289   41.9930    1.7541 H   0  0  0  0  0  0
   27.3141   42.0612    0.8703 H   0  0  0  0  0  0
   28.0511   43.3463    3.9245 N   0  3  0  0  0  0
   27.6179   43.4122    4.8347 H   0  0  0  0  0  0
   28.9170   42.8312    4.0063 H   0  0  0  0  0  0
   26.7733   41.2762    3.5256 C   0  0  0  0  0  0
   26.4387   41.3619    4.5612 H   0  0  0  0  0  0
   27.6479   40.6248    3.5390 H   0  0  0  0  0  0
   25.6437   40.6148    2.7148 C   0  0  0  0  0  0
   25.4032   39.6355    3.1298 H   0  0  0  0  0  0
   25.9784   40.4186    1.6968 H   0  0  0  0  0  0
   23.4149   40.3459    4.3817 N   0  0  0  0  0  0
   22.3310   40.1458    5.1435 C   0  0  0  0  0  0
   22.4223   39.1425    6.0990 N   0  0  0  0  0  0
   21.6444   38.9350    6.7064 H   0  0  0  0  0  0
   23.2761   38.6164    6.2520 H   0  0  0  0  0  0
   20.1092   41.1596    7.5261 S   0  0  0  0  0  0
   18.4322   40.7770    7.7663 C   0  0  0  0  0  0
   17.8073   40.9107    9.1046 C   0  0  0  0  0  0
   16.8491   40.3989    9.0974 H   0  0  0  0  0  0
   17.6448   41.9617    9.3634 H   0  0  0  0  0  0
   18.4261   40.4497    9.8777 H   0  0  0  0  0  0
   17.8376   40.3584    6.6033 C   0  0  0  0  0  0
   16.8055   40.0527    6.5138 H   0  0  0  0  0  0
   28.2489   44.2782    3.5789 H   0  0  0  0  0  0
  1  2  1  0  0  0
  2 41  1  0  0  0
  2  3  2  0  0  0
  3  4  1  0  0  0
  3 35  1  0  0  0
  4 31  1  0  0  0
  4  5  2  0  0  0
  5  6  1  0  0  0
  5  7  1  0  0  0
  7  8  2  0  0  0
  8  9  1  0  0  0
  8 30  1  0  0  0
  9 27  1  0  0  0
  9 10  1  0  0  0
 10 11  1  0  0  0
 10 12  1  0  0  0
 10 13  1  0  0  0
 13 14  1  0  0  0
 13 15  1  0  0  0
 13 16  1  0  0  0
 16 17  1  0  0  0
 16 21  1  0  0  0
 16 24  1  0  0  0
 17 18  1  0  0  0
 17 19  1  0  0  0
 17 20  1  0  0  0
 21 22  1  0  0  0
 21 23  1  0  0  0
 21 43  1  0  0  0
 24 25  1  0  0  0
 24 26  1  0  0  0
 24 27  1  0  0  0
 27 28  1  0  0  0
 27 29  1  0  0  0
 30 31  2  0  0  0
 31 32  1  0  0  0
 32 33  1  0  0  0
 32 34  1  0  0  0
 35 36  1  0  0  0
 36 37  1  0  0  0
 36 41  2  0  0  0
 37 38  1  0  0  0
 37 39  1  0  0  0
 37 40  1  0  0  0
 41 42  1  0  0  0
M  CHG  1  21   1
M  END
> <s_m_source_file>
ligprep_shp2.smi

> <i_m_source_file_index>
20

> <i_lp_mmshare_version>
53161

> <i_f3d_flags>
0

> <s_epik_input>
czFjKFtDSDNdKVtjSF1bY0hdYzEtYzJbY0hdbmMobmMyW05IMl0pTihbQ0gyXVtDSDJdMylbQ0gyXVtDSDJdQzMoW0NIM10pW05IMl0=

> <s_epik_cmdline>
J2VwaWtfcHl0aG9uJywgJy1waHQnLCAnMC4wJywgJy1waCcsICc3LjQnLCAnLXRuJywgJzgnLCAnLW1hJywgJzUwMCcsICctaW1hZScsICc8aW5maWxlLm1hZT4nLCAnLW9tYWUnLCAnPG91dGZpbGUubWFlPic=

> <r_lp_tautomer_probability>
1

> <r_epik_Ionization_Penalty>
0.1808

> <r_epik_Ionization_Penalty_Charging>
0.0167

> <r_epik_Ionization_Penalty_Neutral>
0.1641

> <r_epik_State_Penalty>
-0

> <r_epik_Charging_Adjusted_Penalty>
0.0167369

> <i_epik_Tot_Q>
1

> <i_epik_Tot_abs_Q>
1

> <s_lp_Force_Field>
S-OPLS

> <r_lp_Energy>
34.3031

> <b_lp_Chiralities_Consistent>
1

> <s_lp_Variant>
lig_E4-1

> <s_i_glide_gridfile>
glide-grid_5EHR-SHP2

> <i_i_glide_lignum>
20

> <i_i_glide_rotatable_bonds>
2

> <r_i_docking_score>
-8.93407

> <r_i_glide_ligand_efficiency>
-0.425432

> <r_i_glide_ligand_efficiency_sa>
-1.17373

> <r_i_glide_ligand_efficiency_ln>
-2.20893

> <r_i_glide_gscore>
-8.93407

> <r_i_glide_lipo>
-2.83965

> <r_i_glide_hbond>
-0.359836

> <r_i_glide_metal>
-0

> <r_i_glide_rewards>
-1.84827

> <r_i_glide_evdw>
-44.0839

> <r_i_glide_ecoul>
-13.8673

> <r_i_glide_erotb>
0.397973

> <r_i_glide_esite>
0

> <r_i_glide_emodel>
-93.9192

> <r_i_glide_energy>
-57.9512

> <r_i_glide_einternal>
1.16912

> <i_i_glide_confnum>
32

> <i_i_glide_posenum>
8

> <r_i_glide_eff_state_penalty>
-0

> <r_i_glide_rmsd>
0.117323

> <s_glide_core_constrain_type>
snapped_core_restrain
$$$$