lig_8f
                    3D
 Schrodinger Suite 2021-1.
 49 52  0  0  1  0            999 V2000
  -37.9645   -9.5163   10.8431 H   0  0  0  0  0  0
  -38.3499  -10.2532   10.1531 C   0  0  0  0  0  0
  -38.3281   -9.9594    8.7745 C   0  0  0  0  0  0
  -37.9194   -9.0150    8.4418 H   0  0  0  0  0  0
  -38.8089  -10.8958    7.8362 C   0  0  0  0  0  0
  -38.7030  -10.6093    6.3406 C   0  0  1  0  0  0
  -38.5944   -9.5324    6.2110 H   0  0  0  0  0  0
  -37.4359  -11.2909    5.7871 C   0  0  0  0  0  0
  -36.5529  -10.8586    6.2575 H   0  0  0  0  0  0
  -37.4334  -12.3467    6.0549 H   0  0  0  0  0  0
  -37.3232  -11.1745    4.2630 C   0  0  0  0  0  0
  -37.2124  -10.1297    3.9705 H   0  0  0  0  0  0
  -36.4235  -11.6919    3.9266 H   0  0  0  0  0  0
  -38.5163  -11.7663    3.6135 N   0  3  2  0  0  0
  -38.3726  -11.8581    2.1434 C   0  0  0  0  0  0
  -38.2807  -10.8679    1.6945 H   0  0  0  0  0  0
  -37.4882  -12.4374    1.8762 H   0  0  0  0  0  0
  -39.2374  -12.3527    1.7002 H   0  0  0  0  0  0
  -39.7571  -11.0626    4.0141 C   0  0  0  0  0  0
  -39.7049  -10.0558    3.6219 H   0  0  0  0  0  0
  -40.6203  -11.5319    3.5393 H   0  0  0  0  0  0
  -39.9577  -11.0524    5.5425 C   0  0  0  0  0  0
  -40.2624  -12.0557    5.8138 H   0  0  0  0  0  0
  -40.8048  -10.4191    5.8067 H   0  0  0  0  0  0
  -39.3091  -12.1309    8.3020 C   0  0  0  0  0  0
  -39.6548  -12.8914    7.6216 H   0  0  0  0  0  0
  -39.3450  -12.4228    9.6736 C   0  0  0  0  0  0
  -39.7328  -13.3823    9.9857 H   0  0  0  0  0  0
  -38.8628  -11.4883   10.6145 C   0  0  0  0  0  0
  -38.8923  -11.8212   12.0725 C   0  0  0  0  0  0
  -39.5691  -12.8554   12.4867 N   0  0  0  0  0  0
  -39.6175  -13.1856   13.8508 C   0  0  0  0  0  0
  -38.9270  -12.4027   14.8096 C   0  0  0  0  0  0
  -39.0554  -12.6882   16.1893 C   0  0  0  0  0  0
  -38.5583  -12.0760   16.9281 H   0  0  0  0  0  0
  -39.8742  -13.7621   16.5985 C   0  0  0  0  0  0
  -40.1247  -14.0347   17.8976 F   0  0  0  0  0  0
  -40.5172  -14.5663   15.6473 C   0  0  0  0  0  0
  -41.1394  -15.3835   15.9854 H   0  0  0  0  0  0
  -40.3917  -14.2921   14.2773 C   0  0  0  0  0  0
  -41.1207  -15.1892   13.2966 C   0  0  0  0  0  0
  -40.5781  -15.2558   12.3552 H   0  0  0  0  0  0
  -41.2149  -16.2006   13.6927 H   0  0  0  0  0  0
  -42.1248  -14.8089   13.1140 H   0  0  0  0  0  0
  -38.0763  -11.2731   14.3015 C   0  0  0  0  0  0
  -37.3375  -10.6093   15.0280 O   0  0  0  0  0  0
  -38.1581  -11.0458   12.9813 N   0  0  0  0  0  0
  -37.5700  -10.3080   12.6174 H   0  0  0  0  0  0
  -38.5952  -12.7142    3.9536 H   0  0  0  0  0  0
  1  2  1  0  0  0
  2 29  1  0  0  0
  2  3  2  0  0  0
  3  4  1  0  0  0
  3  5  1  0  0  0
  5  6  1  0  0  0
  5 25  2  0  0  0
  6 22  1  0  0  0
  6  7  1  0  0  0
  6  8  1  0  0  0
  8  9  1  0  0  0
  8 10  1  0  0  0
  8 11  1  0  0  0
 11 12  1  0  0  0
 11 13  1  0  0  0
 11 14  1  0  0  0
 14 15  1  0  0  0
 14 19  1  0  0  0
 14 49  1  0  0  0
 15 16  1  0  0  0
 15 17  1  0  0  0
 15 18  1  0  0  0
 19 20  1  0  0  0
 19 21  1  0  0  0
 19 22  1  0  0  0
 22 23  1  0  0  0
 22 24  1  0  0  0
 25 26  1  0  0  0
 25 27  1  0  0  0
 27 28  1  0  0  0
 27 29  2  0  0  0
 29 30  1  0  0  0
 30 47  1  0  0  0
 30 31  2  0  0  0
 31 32  1  0  0  0
 32 40  2  0  0  0
 32 33  1  0  0  0
 33 34  2  0  0  0
 33 45  1  0  0  0
 34 35  1  0  0  0
 34 36  1  0  0  0
 36 37  1  0  0  0
 36 38  2  0  0  0
 38 39  1  0  0  0
 38 40  1  0  0  0
 40 41  1  0  0  0
 41 42  1  0  0  0
 41 43  1  0  0  0
 41 44  1  0  0  0
 45 46  2  0  0  0
 45 47  1  0  0  0
 47 48  1  0  0  0
M  CHG  1  14   1
M  END
> <s_m_source_file>
ligprep_tnks2.smi

> <i_m_source_file_index>
27

> <i_lp_mmshare_version>
53161

> <i_f3d_flags>
0

> <s_epik_input>
W0NIMl0xW0NIMl1OKFtDSDNdKVtDSDJdW0NIMl1bQ0hdMWMyW2NIXVtjSF1jKFtjSF1bY0hdMiktYyhuMylbbkhdYyg9TyljKGMzNClbY0hdYyhGKVtjSF1jNFtDSDNd

> <s_epik_cmdline>
J2VwaWtfcHl0aG9uJywgJy1waHQnLCAnMC4wJywgJy1waCcsICc3LjQnLCAnLXRuJywgJzgnLCAnLW1hJywgJzUwMCcsICctaW1hZScsICc8aW5maWxlLm1hZT4nLCAnLW9tYWUnLCAnPG91dGZpbGUubWFlPic=

> <r_lp_tautomer_probability>
1

> <r_epik_Ionization_Penalty>
0.0284

> <r_epik_Ionization_Penalty_Charging>
0.0284

> <r_epik_Ionization_Penalty_Neutral>
0

> <r_epik_State_Penalty>
-0

> <r_epik_Charging_Adjusted_Penalty>
0.0283676

> <i_epik_Tot_Q>
1

> <i_epik_Tot_abs_Q>
1

> <s_lp_Force_Field>
S-OPLS

> <r_lp_Energy>
43.572

> <b_lp_Chiralities_Consistent>
1

> <s_lp_Variant>
lig_8f-1

> <s_i_glide_gridfile>
glide-grid_4UI5-TNKS2

> <i_i_glide_lignum>
28

> <i_i_glide_rotatable_bonds>
2

> <r_i_docking_score>
-12.3042

> <r_i_glide_ligand_efficiency>
-0.473237

> <r_i_glide_ligand_efficiency_sa>
-1.40196

> <r_i_glide_ligand_efficiency_ln>
-2.88959

> <r_i_glide_gscore>
-12.3042

> <r_i_glide_lipo>
-4.88871

> <r_i_glide_hbond>
-0.815571

> <r_i_glide_metal>
-0

> <r_i_glide_rewards>
-3.03463

> <r_i_glide_evdw>
-48.1411

> <r_i_glide_ecoul>
-9.12716

> <r_i_glide_erotb>
0.21512

> <r_i_glide_esite>
-0.0042375

> <r_i_glide_emodel>
-77.526

> <r_i_glide_energy>
-57.2682

> <r_i_glide_einternal>
4.10831

> <i_i_glide_confnum>
3

> <i_i_glide_posenum>
2

> <r_i_glide_eff_state_penalty>
-0

> <r_i_glide_rmsd>
0.0949969

> <s_glide_core_constrain_type>
snapped_core_restrain
$$$$