lig_E3
                    3D
 Schrodinger Suite 2021-1.
 40 42  0  0  1  0            999 V2000
   18.4375   40.8739    8.9952 H   0  0  0  0  0  0
   18.6655   40.7610    7.9455 C   0  0  0  0  0  0
   17.7520   40.4929    6.9627 C   0  0  0  0  0  0
   16.0491   40.3607    7.0967 Cl  0  0  0  0  0  0
   18.4690   40.3547    5.3849 S   0  0  0  0  0  0
   20.0263   40.7618    6.0522 C   0  0  0  0  0  0
   21.1581   40.8949    5.1492 C   0  0  0  0  0  0
   21.1644   41.8420    4.1108 C   0  0  0  0  0  0
   20.3152   42.4889    3.9433 H   0  0  0  0  0  0
   22.2149   42.0047    3.2863 N   0  0  0  0  0  0
   23.2850   41.2307    3.4972 C   0  0  0  0  0  0
   24.3980   41.4258    2.6747 N   0  0  0  0  0  0
   24.6986   42.7335    2.0957 C   0  0  0  0  0  0
   23.8277   43.3868    2.0716 H   0  0  0  0  0  0
   24.9842   42.5960    1.0538 H   0  0  0  0  0  0
   25.8326   43.4173    2.8839 C   0  0  0  0  0  0
   25.4736   43.6305    3.8916 H   0  0  0  0  0  0
   26.0478   44.3875    2.4354 H   0  0  0  0  0  0
   27.1117   42.5454    2.9566 C   0  0  0  0  0  0
   27.8023   42.4643    1.5803 C   0  0  0  0  0  0
   27.1673   42.0100    0.8201 H   0  0  0  0  0  0
   28.7183   41.8725    1.6298 H   0  0  0  0  0  0
   28.0739   43.4562    1.2146 H   0  0  0  0  0  0
   28.0681   43.1611    3.8962 N   0  3  0  0  0  0
   27.6828   43.1892    4.8302 H   0  0  0  0  0  0
   28.9304   42.6319    3.9044 H   0  0  0  0  0  0
   26.7235   41.1384    3.4762 C   0  0  0  0  0  0
   27.5832   40.4684    3.4410 H   0  0  0  0  0  0
   26.4282   41.2006    4.5242 H   0  0  0  0  0  0
   25.5510   40.5224    2.6854 C   0  0  0  0  0  0
   25.2947   39.5450    3.0950 H   0  0  0  0  0  0
   25.8486   40.3324    1.6551 H   0  0  0  0  0  0
   23.3821   40.2989    4.4471 N   0  0  0  0  0  0
   22.3271   40.1221    5.2587 C   0  0  0  0  0  0
   22.4491   39.1607    6.2505 N   0  0  0  0  0  0
   21.6765   38.9471    6.8615 H   0  0  0  0  0  0
   23.2966   38.6120    6.3729 H   0  0  0  0  0  0
   19.9809   40.9161    7.4170 C   0  0  0  0  0  0
   20.8291   41.1574    8.0404 H   0  0  0  0  0  0
   28.2630   44.1071    3.5899 H   0  0  0  0  0  0
  1  2  1  0  0  0
  2 38  1  0  0  0
  2  3  2  0  0  0
  3  4  1  0  0  0
  3  5  1  0  0  0
  5  6  1  0  0  0
  6  7  1  0  0  0
  6 38  2  0  0  0
  7 34  1  0  0  0
  7  8  2  0  0  0
  8  9  1  0  0  0
  8 10  1  0  0  0
 10 11  2  0  0  0
 11 12  1  0  0  0
 11 33  1  0  0  0
 12 30  1  0  0  0
 12 13  1  0  0  0
 13 14  1  0  0  0
 13 15  1  0  0  0
 13 16  1  0  0  0
 16 17  1  0  0  0
 16 18  1  0  0  0
 16 19  1  0  0  0
 19 20  1  0  0  0
 19 24  1  0  0  0
 19 27  1  0  0  0
 20 21  1  0  0  0
 20 22  1  0  0  0
 20 23  1  0  0  0
 24 25  1  0  0  0
 24 26  1  0  0  0
 24 40  1  0  0  0
 27 28  1  0  0  0
 27 29  1  0  0  0
 27 30  1  0  0  0
 30 31  1  0  0  0
 30 32  1  0  0  0
 33 34  2  0  0  0
 34 35  1  0  0  0
 35 36  1  0  0  0
 35 37  1  0  0  0
 38 39  1  0  0  0
M  CHG  1  24   1
M  END
> <s_m_source_file>
ligprep_shp2.smi

> <i_m_source_file_index>
18

> <i_lp_mmshare_version>
53161

> <i_f3d_flags>
0

> <s_epik_input>
Q2xjMVtjSF1bY0hdYyhzMSktYzJbY0hdbmMobmMyW05IMl0pTihbQ0gyXVtDSDJdMylbQ0gyXVtDSDJdQzMoW0NIM10pW05IMl0=

> <s_epik_cmdline>
J2VwaWtfcHl0aG9uJywgJy1waHQnLCAnMC4wJywgJy1waCcsICc3LjQnLCAnLXRuJywgJzgnLCAnLW1hJywgJzUwMCcsICctaW1hZScsICc8aW5maWxlLm1hZT4nLCAnLW9tYWUnLCAnPG91dGZpbGUubWFlPic=

> <r_lp_tautomer_probability>
1

> <r_epik_Ionization_Penalty>
0.1808

> <r_epik_Ionization_Penalty_Charging>
0.0167

> <r_epik_Ionization_Penalty_Neutral>
0.1641

> <r_epik_State_Penalty>
-0

> <r_epik_Charging_Adjusted_Penalty>
0.0167369

> <i_epik_Tot_Q>
1

> <i_epik_Tot_abs_Q>
1

> <s_lp_Force_Field>
S-OPLS

> <r_lp_Energy>
32.8393

> <b_lp_Chiralities_Consistent>
1

> <s_lp_Variant>
lig_E3-1

> <s_i_glide_gridfile>
glide-grid_5EHR-SHP2

> <i_i_glide_lignum>
18

> <i_i_glide_rotatable_bonds>
2

> <r_i_docking_score>
-9.16959

> <r_i_glide_ligand_efficiency>
-0.436647

> <r_i_glide_ligand_efficiency_sa>
-1.20468

> <r_i_glide_ligand_efficiency_ln>
-2.26716

> <r_i_glide_gscore>
-9.16959

> <r_i_glide_lipo>
-2.82058

> <r_i_glide_hbond>
-0.382405

> <r_i_glide_metal>
-0

> <r_i_glide_rewards>
-1.68991

> <r_i_glide_evdw>
-47.0663

> <r_i_glide_ecoul>
-15.1895

> <r_i_glide_erotb>
0.355035

> <r_i_glide_esite>
0

> <r_i_glide_emodel>
-102.28

> <r_i_glide_energy>
-62.2558

> <r_i_glide_einternal>
1.65673

> <i_i_glide_confnum>
22

> <i_i_glide_posenum>
40

> <r_i_glide_eff_state_penalty>
-0

> <r_i_glide_rmsd>
0.0936883

> <s_glide_core_constrain_type>
snapped_core_restrain
$$$$