lig_CHEMBL3265001
                    3D
 Schrodinger Suite 2021-1.
 62 67  0  0  1  0            999 V2000
    6.2963   -0.8047   17.2410 H   0  0  0  0  0  0
    5.6610   -0.5049   16.4277 C   0  0  0  0  0  0
    5.9128    0.4140   15.4489 C   0  0  0  0  0  0
    6.7621    1.0429   15.2281 H   0  0  0  0  0  0
    4.7534    0.5116   14.7131 N   0  0  0  0  0  0
    3.8351   -0.4102   15.2607 C   0  0  0  0  0  0
    4.3966   -1.0609   16.2793 N   0  0  0  0  0  0
    2.5356   -0.4387   14.6732 C   0  0  0  0  0  0
    1.6005   -1.3293   15.2307 N   0  0  0  0  0  0
    1.9997   -1.9028   15.9636 H   0  0  0  0  0  0
    0.2253   -1.5389   15.0228 C   0  0  0  0  0  0
   -0.3712   -2.5723   15.7731 C   0  0  0  0  0  0
    0.2261   -3.1588   16.4573 H   0  0  0  0  0  0
   -1.7438   -2.8500   15.6577 C   0  0  0  0  0  0
   -2.1778   -3.6460   16.2463 H   0  0  0  0  0  0
   -2.5493   -2.0938   14.7839 C   0  0  0  0  0  0
   -3.8877   -2.3720   14.6932 O   0  0  0  0  0  0
   -4.2249   -3.1294   13.5421 C   0  0  0  0  0  0
   -5.3017   -3.2962   13.5160 H   0  0  0  0  0  0
   -3.9434   -2.6199   12.6199 H   0  0  0  0  0  0
   -3.7355   -4.1036   13.5625 H   0  0  0  0  0  0
   -1.9811   -1.0449   14.0270 C   0  0  0  0  0  0
   -2.8297   -0.3194   13.2126 O   0  0  0  0  0  0
   -2.2548    0.6659   12.3688 C   0  0  0  0  0  0
   -3.0260    1.1066   11.7362 H   0  0  0  0  0  0
   -1.8128    1.4638   12.9665 H   0  0  0  0  0  0
   -1.4958    0.2323   11.7151 H   0  0  0  0  0  0
   -0.5927   -0.7823   14.1490 C   0  0  0  0  0  0
   -0.1623    0.0223   13.5823 H   0  0  0  0  0  0
    2.2127    0.3527   13.6916 N   0  0  0  0  0  0
    3.1393    1.2513   13.2072 C   0  0  0  0  0  0
    2.6811    2.1404   12.1230 C   0  0  0  0  0  0
    3.5883    2.6140   11.1473 C   0  0  0  0  0  0
    4.6260    2.3239   11.1819 H   0  0  0  0  0  0
    3.1566    3.4361   10.0932 C   0  0  0  0  0  0
    3.8638    3.7749    9.3509 H   0  0  0  0  0  0
    1.8012    3.7955    9.9960 C   0  0  0  0  0  0
    1.4728    4.4117    9.1712 H   0  0  0  0  0  0
    0.8776    3.3584   10.9683 C   0  0  0  0  0  0
   -0.5750    3.7010   10.8125 C   0  0  0  0  0  0
   -1.0995    3.6383    9.7013 O   0  0  0  0  0  0
   -1.1983    4.1111   11.9320 N   0  0  0  0  0  0
   -0.5991    4.2751   12.7373 H   0  0  0  0  0  0
   -2.5476    4.5376   12.0714 C   0  0  0  0  0  0
   -3.6050    4.0914   11.2441 C   0  0  0  0  0  0
   -3.4345    3.3810   10.4480 H   0  0  0  0  0  0
   -4.9146    4.5753   11.4451 C   0  0  0  0  0  0
   -5.7037    4.2362   10.7888 H   0  0  0  0  0  0
   -5.2077    5.4915   12.4845 C   0  0  0  0  0  0
   -6.5885    5.9853   12.7069 C   0  0  0  0  0  0
   -6.8543    7.0868   13.4186 N   0  0  0  0  0  0
   -8.1961    7.1213   13.4207 N   0  0  0  0  0  0
   -8.6816    6.0827   12.7186 N   0  0  0  0  0  0
   -7.6698    5.3410   12.2426 N   0  5  0  0  0  0
   -4.1452    5.8990   13.3263 C   0  0  0  0  0  0
   -4.3309    6.5795   14.1453 H   0  0  0  0  0  0
   -2.8324    5.4322   13.1207 C   0  0  0  0  0  0
   -2.0401    5.7610   13.7786 H   0  0  0  0  0  0
    1.3260    2.5384   12.0277 C   0  0  0  0  0  0
    0.6178    2.1853   12.7627 H   0  0  0  0  0  0
    4.4223    1.3288   13.6867 C   0  0  0  0  0  0
    5.1724    2.0358   13.3491 H   0  0  0  0  0  0
  1  2  1  0  0  0
  2  7  1  0  0  0
  2  3  2  0  0  0
  3  4  1  0  0  0
  3  5  1  0  0  0
  5 61  1  0  0  0
  5  6  1  0  0  0
  6  7  2  0  0  0
  6  8  1  0  0  0
  8  9  1  0  0  0
  8 30  2  0  0  0
  9 10  1  0  0  0
  9 11  1  0  0  0
 11 28  1  0  0  0
 11 12  2  0  0  0
 12 13  1  0  0  0
 12 14  1  0  0  0
 14 15  1  0  0  0
 14 16  2  0  0  0
 16 17  1  0  0  0
 16 22  1  0  0  0
 17 18  1  0  0  0
 18 19  1  0  0  0
 18 20  1  0  0  0
 18 21  1  0  0  0
 22 23  1  0  0  0
 22 28  2  0  0  0
 23 24  1  0  0  0
 24 25  1  0  0  0
 24 26  1  0  0  0
 24 27  1  0  0  0
 28 29  1  0  0  0
 30 31  1  0  0  0
 31 32  1  0  0  0
 31 61  2  0  0  0
 32 59  1  0  0  0
 32 33  2  0  0  0
 33 34  1  0  0  0
 33 35  1  0  0  0
 35 36  1  0  0  0
 35 37  2  0  0  0
 37 38  1  0  0  0
 37 39  1  0  0  0
 39 40  1  0  0  0
 39 59  2  0  0  0
 40 41  2  0  0  0
 40 42  1  0  0  0
 42 43  1  0  0  0
 42 44  1  0  0  0
 44 57  1  0  0  0
 44 45  2  0  0  0
 45 46  1  0  0  0
 45 47  1  0  0  0
 47 48  1  0  0  0
 47 49  2  0  0  0
 49 50  1  0  0  0
 49 55  1  0  0  0
 50 54  1  0  0  0
 50 51  2  0  0  0
 51 52  1  0  0  0
 52 53  2  0  0  0
 53 54  1  0  0  0
 55 56  1  0  0  0
 55 57  2  0  0  0
 57 58  1  0  0  0
 59 60  1  0  0  0
 61 62  1  0  0  0
M  CHG  1  54  -1
M  END
> <s_m_source_file>
ligprep_syk.smi

> <i_m_source_file_index>
9

> <i_lp_mmshare_version>
53161

> <i_f3d_flags>
0

> <s_epik_input>
W0NIM11PYyhbY0hdMSljKE9bQ0gzXSlbY0hdW2NIXWMxW05IXWMoYyhuMjMpbltjSF1bY0hdMiluYyhbY0hdMyktYzRbY0hdW2NIXVtjSF1jKFtjSF00KUMoPU8pW05IXWM1W2NIXVtjSF1jKFtjSF1bY0hdNSktYzZubm5bbkhdNg==

> <s_epik_cmdline>
J2VwaWtfcHl0aG9uJywgJy1waHQnLCAnMC4wJywgJy1waCcsICc3LjQnLCAnLXRuJywgJzgnLCAnLW1hJywgJzUwMCcsICctaW1hZScsICc8aW5maWxlLm1hZT4nLCAnLW9tYWUnLCAnPG91dGZpbGUubWFlPic=

> <r_lp_tautomer_probability>
1

> <r_epik_Ionization_Penalty>
0.0029

> <r_epik_Ionization_Penalty_Charging>
0.0029

> <r_epik_Ionization_Penalty_Neutral>
0

> <r_epik_State_Penalty>
-0

> <r_epik_Charging_Adjusted_Penalty>
0.00289321

> <i_epik_Tot_Q>
-1

> <i_epik_Tot_abs_Q>
1

> <s_lp_Force_Field>
S-OPLS

> <r_lp_Energy>
60.4222

> <b_lp_Chiralities_Consistent>
1

> <s_lp_Variant>
lig_CHEMBL3265001-1

> <s_i_glide_gridfile>
glide-grid_4PV0-SYK

> <i_i_glide_lignum>
9

> <i_i_glide_rotatable_bonds>
9

> <r_i_docking_score>
-9.71471

> <r_i_glide_ligand_efficiency>
-0.242868

> <r_i_glide_ligand_efficiency_sa>
-0.830596

> <r_i_glide_ligand_efficiency_ln>
-2.07186

> <r_i_glide_gscore>
-9.71471

> <r_i_glide_lipo>
-2.96041

> <r_i_glide_hbond>
-0.628784

> <r_i_glide_metal>
-0

> <r_i_glide_rewards>
-1.51917

> <r_i_glide_evdw>
-56.2893

> <r_i_glide_ecoul>
-15.6358

> <r_i_glide_erotb>
0.654605

> <r_i_glide_esite>
-0.101112

> <r_i_glide_emodel>
-117.773

> <r_i_glide_energy>
-71.9252

> <r_i_glide_einternal>
0.139797

> <i_i_glide_confnum>
4

> <i_i_glide_posenum>
1

> <r_i_glide_eff_state_penalty>
-0

> <r_i_glide_rmsd>
0.0704634

> <s_glide_core_constrain_type>
snapped_core_restrain
$$$$