lig_CHEMBL3265036
                    3D
 Schrodinger Suite 2021-1.
 55 60  0  0  1  0            999 V2000
    1.3261    5.2275    8.2253 H   0  0  0  0  0  0
    1.0375    4.7045    9.1247 C   0  0  0  0  0  0
   -0.1938    4.8083    9.5662 N   0  0  0  0  0  0
   -0.2337    4.0664   10.7026 N   0  0  0  0  0  0
   -1.0809    4.0111   11.2477 H   0  0  0  0  0  0
    0.9667    3.4555   11.0132 C   0  0  0  0  0  0
    1.3866    2.6111   12.0538 C   0  0  0  0  0  0
    0.6881    2.3343   12.8293 H   0  0  0  0  0  0
    2.7159    2.1382   12.0856 C   0  0  0  0  0  0
    3.1749    1.2377   13.1605 C   0  0  0  0  0  0
    4.4571    1.3133   13.6467 C   0  0  0  0  0  0
    5.2087    2.0154   13.3039 H   0  0  0  0  0  0
    4.7767    0.5063   14.6853 N   0  0  0  0  0  0
    3.8490   -0.4066   15.2368 C   0  0  0  0  0  0
    4.3892   -1.0422   16.2762 N   0  0  0  0  0  0
    5.6586   -0.4990   16.4242 C   0  0  0  0  0  0
    6.2838   -0.8063   17.2458 H   0  0  0  0  0  0
    5.9300    0.3983   15.4314 C   0  0  0  0  0  0
    6.7917    1.0066   15.2024 H   0  0  0  0  0  0
    2.5603   -0.4451   14.6354 C   0  0  0  0  0  0
    1.6292   -1.3406   15.1899 N   0  0  0  0  0  0
    2.0316   -1.9114   15.9240 H   0  0  0  0  0  0
    0.2487   -1.5330   14.9988 C   0  0  0  0  0  0
   -0.3782   -2.5243   15.7805 C   0  0  0  0  0  0
    0.1994   -3.0906   16.5003 H   0  0  0  0  0  0
   -1.7540   -2.7973   15.6423 C   0  0  0  0  0  0
   -2.1794   -3.5719   16.2615 H   0  0  0  0  0  0
   -2.5404   -2.0923   14.6980 C   0  0  0  0  0  0
   -3.9043   -2.3751   14.4708 N   0  0  0  0  0  0
   -4.1328   -2.8703   13.1105 C   0  0  0  0  0  0
   -3.9951   -2.0357   12.4236 H   0  0  0  0  0  0
   -3.3708   -3.6042   12.8604 H   0  0  0  0  0  0
   -5.5186   -3.4790   12.8494 C   0  0  0  0  0  0
   -6.3312   -2.8699   13.2532 H   0  0  0  0  0  0
   -5.6730   -3.5155   11.7700 H   0  0  0  0  0  0
   -5.5614   -4.8300   13.2945 O   0  0  0  0  0  0
   -5.8811   -4.9797   14.6741 C   0  0  0  0  0  0
   -5.9975   -6.0461   14.8625 H   0  0  0  0  0  0
   -6.8489   -4.5256   14.8941 H   0  0  0  0  0  0
   -4.7899   -4.4323   15.6080 C   0  0  0  0  0  0
   -3.8286   -4.9009   15.3854 H   0  0  0  0  0  0
   -5.0416   -4.7363   16.6241 H   0  0  0  0  0  0
   -4.6840   -2.8964   15.5935 C   0  0  0  0  0  0
   -4.2432   -2.5568   16.5300 H   0  0  0  0  0  0
   -5.6809   -2.4530   15.5750 H   0  0  0  0  0  0
   -1.9161   -1.0872   13.9328 C   0  0  0  0  0  0
   -2.4843   -0.5228   13.2069 H   0  0  0  0  0  0
   -0.5455   -0.8069   14.0867 C   0  0  0  0  0  0
   -0.1354   -0.0254   13.4716 H   0  0  0  0  0  0
    2.2439    0.3433   13.6454 N   0  0  0  0  0  0
    3.5995    2.5614   11.0607 C   0  0  0  0  0  0
    4.6230    2.2133   11.0579 H   0  0  0  0  0  0
    3.1700    3.4067   10.0179 C   0  0  0  0  0  0
    3.8604    3.7023    9.2414 H   0  0  0  0  0  0
    1.8373    3.8702    9.9724 C   0  0  0  0  0  0
  1  2  1  0  0  0
  2 55  1  0  0  0
  2  3  2  0  0  0
  3  4  1  0  0  0
  4  5  1  0  0  0
  4  6  1  0  0  0
  6 55  2  0  0  0
  6  7  1  0  0  0
  7  8  1  0  0  0
  7  9  2  0  0  0
  9 10  1  0  0  0
  9 51  1  0  0  0
 10 50  1  0  0  0
 10 11  2  0  0  0
 11 12  1  0  0  0
 11 13  1  0  0  0
 13 18  1  0  0  0
 13 14  1  0  0  0
 14 15  2  0  0  0
 14 20  1  0  0  0
 15 16  1  0  0  0
 16 17  1  0  0  0
 16 18  2  0  0  0
 18 19  1  0  0  0
 20 21  1  0  0  0
 20 50  2  0  0  0
 21 22  1  0  0  0
 21 23  1  0  0  0
 23 48  1  0  0  0
 23 24  2  0  0  0
 24 25  1  0  0  0
 24 26  1  0  0  0
 26 27  1  0  0  0
 26 28  2  0  0  0
 28 29  1  0  0  0
 28 46  1  0  0  0
 29 43  1  0  0  0
 29 30  1  0  0  0
 30 31  1  0  0  0
 30 32  1  0  0  0
 30 33  1  0  0  0
 33 34  1  0  0  0
 33 35  1  0  0  0
 33 36  1  0  0  0
 36 37  1  0  0  0
 37 38  1  0  0  0
 37 39  1  0  0  0
 37 40  1  0  0  0
 40 41  1  0  0  0
 40 42  1  0  0  0
 40 43  1  0  0  0
 43 44  1  0  0  0
 43 45  1  0  0  0
 46 47  1  0  0  0
 46 48  2  0  0  0
 48 49  1  0  0  0
 51 52  1  0  0  0
 51 53  2  0  0  0
 53 54  1  0  0  0
 53 55  1  0  0  0
M  END
> <s_m_source_file>
ligprep_syk.smi

> <i_m_source_file_index>
43

> <i_lp_mmshare_version>
53161

> <i_f3d_flags>
0

> <s_epik_input>
W25IXTFuW2NIXWMoYzEyKVtjSF1bY0hdYyhbY0hdMiktYyhbY0hdMyluYyhjKG4zNCluW2NIXVtjSF00KVtOSF1jNVtjSF1bY0hdYyhbY0hdW2NIXTUpTjZbQ0gyXVtDSDJdT1tDSDJdW0NIMl1bQ0gyXTY=

> <s_epik_cmdline>
J2VwaWtfcHl0aG9uJywgJy1waHQnLCAnMC4wJywgJy1waCcsICc3LjQnLCAnLXRuJywgJzgnLCAnLW1hJywgJzUwMCcsICctaW1hZScsICc8aW5maWxlLm1hZT4nLCAnLW9tYWUnLCAnPG91dGZpbGUubWFlPic=

> <r_lp_tautomer_probability>
1

> <r_epik_Ionization_Penalty>
0.0143

> <r_epik_Ionization_Penalty_Charging>
0.0009

> <r_epik_Ionization_Penalty_Neutral>
0.0134

> <r_epik_State_Penalty>
-0

> <r_epik_Charging_Adjusted_Penalty>
0.000851558

> <i_epik_Tot_Q>
0

> <i_epik_Tot_abs_Q>
0

> <s_lp_Force_Field>
S-OPLS

> <r_lp_Energy>
48.0466

> <b_lp_Chiralities_Consistent>
1

> <s_lp_Variant>
lig_CHEMBL3265036-1

> <s_i_glide_gridfile>
glide-grid_4PV0-SYK

> <i_i_glide_lignum>
45

> <i_i_glide_rotatable_bonds>
4

> <r_i_docking_score>
-8.05887

> <r_i_glide_ligand_efficiency>
-0.25184

> <r_i_glide_ligand_efficiency_sa>
-0.799541

> <r_i_glide_ligand_efficiency_ln>
-1.8046

> <r_i_glide_gscore>
-8.05887

> <r_i_glide_lipo>
-2.87228

> <r_i_glide_hbond>
-0.272157

> <r_i_glide_metal>
-0

> <r_i_glide_rewards>
-1.9335

> <r_i_glide_evdw>
-47.7782

> <r_i_glide_ecoul>
-6.58416

> <r_i_glide_erotb>
0.438309

> <r_i_glide_esite>
-0.0427011

> <r_i_glide_emodel>
-78.8241

> <r_i_glide_energy>
-54.3624

> <r_i_glide_einternal>
2.96597

> <i_i_glide_confnum>
2

> <i_i_glide_posenum>
110

> <r_i_glide_eff_state_penalty>
-0

> <r_i_glide_rmsd>
0.103193

> <s_glide_core_constrain_type>
snapped_core_restrain
$$$$