lig_CAT-13d
                    3D
 Schrodinger Suite 2021-1.
 42 45  0  0  1  0            999 V2000
   29.7480    9.3273   21.8017 H   0  0  0  0  0  0
   29.2401   10.1846   21.3908 C   0  0  0  0  0  0
   27.9185   10.0559   20.9248 C   0  0  0  0  0  0
   27.4056    9.1118   21.0204 H   0  0  0  0  0  0
   27.2627   11.1528   20.3325 C   0  0  0  0  0  0
   25.8771   11.0751   19.8591 C   0  0  0  0  0  0
   24.8022   10.9110   20.7609 C   0  0  0  0  0  0
   25.0354   10.7709   21.8044 H   0  0  0  0  0  0
   23.4459   10.9906   20.3457 C   0  0  0  0  0  0
   22.3109   10.8790   21.4095 C   0  0  2  0  0  0
   20.8250   10.6951   21.0028 C   0  0  0  0  0  0
   20.2096   10.4782   21.8757 H   0  0  0  0  0  0
   20.0883   11.5392   19.9844 C   0  0  0  0  0  0
   19.0792   11.8518   20.2447 H   0  0  0  0  0  0
   20.6505   12.2834   19.4287 H   0  0  0  0  0  0
   20.3078   10.0568   19.7342 C   0  0  0  0  0  0
   21.0324    9.7158   19.0024 H   0  0  0  0  0  0
   19.4459    9.4007   19.8376 H   0  0  0  0  0  0
   22.3961   12.0704   22.3823 C   0  0  0  0  0  0
   22.2548   13.2495   22.0513 O   0  0  0  0  0  0
   22.6304   11.6123   23.6096 N   0  0  0  0  0  0
   22.7895   12.3763   24.8455 C   0  0  0  0  0  0
   22.6348   13.4432   24.6806 H   0  0  0  0  0  0
   22.0720   12.0500   25.5990 H   0  0  0  0  0  0
   23.7945   12.2439   25.2467 H   0  0  0  0  0  0
   22.7250   10.2424   23.5297 C   0  0  0  0  0  0
   22.9309    9.5275   24.6899 N   0  0  0  0  0  0
   22.9944    8.5177   24.6988 H   0  0  0  0  0  0
   22.6052    9.7858   22.3341 N   0  0  0  0  0  0
   23.2227   11.2214   18.9685 C   0  0  0  0  0  0
   22.2454   11.3359   18.5468 H   0  0  0  0  0  0
   24.2730   11.3050   18.0472 C   0  0  0  0  0  0
   24.0618   11.4634   16.9993 H   0  0  0  0  0  0
   25.5996   11.2539   18.4937 C   0  0  0  0  0  0
   26.4058   11.3813   17.7868 H   0  0  0  0  0  0
   27.9485   12.3812   20.2252 C   0  0  0  0  0  0
   27.4534   13.2319   19.7781 H   0  0  0  0  0  0
   29.2587   12.5231   20.7150 C   0  0  0  0  0  0
   30.0517   14.0512   20.6020 Cl  0  0  0  0  0  0
   29.9090   11.4198   21.2979 C   0  0  0  0  0  0
   30.9215   11.5164   21.6617 H   0  0  0  0  0  0
   22.9945    9.9125   25.6241 H   0  0  0  0  0  0
  1  2  1  0  0  0
  2 40  1  0  0  0
  2  3  2  0  0  0
  3  4  1  0  0  0
  3  5  1  0  0  0
  5  6  1  0  0  0
  5 36  2  0  0  0
  6 34  1  0  0  0
  6  7  2  0  0  0
  7  8  1  0  0  0
  7  9  1  0  0  0
  9 30  2  0  0  0
  9 10  1  0  0  0
 10 29  1  0  0  0
 10 19  1  0  0  0
 10 11  1  0  0  0
 11 16  1  0  0  0
 11 12  1  0  0  0
 11 13  1  0  0  0
 13 14  1  0  0  0
 13 15  1  0  0  0
 13 16  1  0  0  0
 16 17  1  0  0  0
 16 18  1  0  0  0
 19 20  2  0  0  0
 19 21  1  0  0  0
 21 22  1  0  0  0
 21 26  1  0  0  0
 22 23  1  0  0  0
 22 24  1  0  0  0
 22 25  1  0  0  0
 26 27  1  0  0  0
 26 29  2  0  0  0
 27 28  1  0  0  0
 27 42  1  0  0  0
 30 31  1  0  0  0
 30 32  1  0  0  0
 32 33  1  0  0  0
 32 34  2  0  0  0
 34 35  1  0  0  0
 36 37  1  0  0  0
 36 38  1  0  0  0
 38 39  1  0  0  0
 38 40  2  0  0  0
 40 41  1  0  0  0
M  END
> <s_m_source_file>
ligprep_bace.smi

> <i_m_source_file_index>
4

> <i_lp_mmshare_version>
53161

> <i_f3d_flags>
0

> <s_epik_input>
W2NIXTFjKENsKVtjSF1bY0hdW2NIXWMxLWMyW2NIXWMoW2NIXVtjSF1bY0hdMilbQ0BdMyhbQ0hdNFtDSDJdW0NIMl00KUMoPU8pTihbQ0gzXSlDKD1OMylbTkgyXQ==

> <s_epik_cmdline>
J2VwaWtfcHl0aG9uJywgJy1waHQnLCAnMC4wJywgJy1waCcsICc3LjQnLCAnLXRuJywgJzgnLCAnLW1hJywgJzUwMCcsICctaW1hZScsICc8aW5maWxlLm1hZT4nLCAnLW9tYWUnLCAnPG91dGZpbGUubWFlPic=

> <r_lp_tautomer_probability>
1

> <r_epik_Ionization_Penalty>
1.4055

> <r_epik_Ionization_Penalty_Charging>
0

> <r_epik_Ionization_Penalty_Neutral>
1.4055

> <r_epik_State_Penalty>
-0

> <r_epik_Charging_Adjusted_Penalty>
0

> <i_epik_Tot_Q>
0

> <i_epik_Tot_abs_Q>
0

> <s_epik_Chemistry_Notes>
This compound has an imine and may undergo hydrolysis.

> <s_lp_Force_Field>
S-OPLS

> <r_lp_Energy>
31.4049

> <b_lp_Chiralities_Consistent>
1

> <s_lp_Variant>
lig_CAT-13d-1

> <s_i_glide_gridfile>
glide-grid_4DJW-BACE

> <i_i_glide_lignum>
4

> <i_i_glide_rotatable_bonds>
3

> <r_i_docking_score>
-5.49948

> <r_i_glide_ligand_efficiency>
-0.229145

> <r_i_glide_ligand_efficiency_sa>
-0.660968

> <r_i_glide_ligand_efficiency_ln>
-1.31628

> <r_i_glide_gscore>
-5.49948

> <r_i_glide_lipo>
-2.42122

> <r_i_glide_hbond>
-0.0482837

> <r_i_glide_metal>
-0

> <r_i_glide_rewards>
-1.37747

> <r_i_glide_evdw>
-36.6974

> <r_i_glide_ecoul>
-1.35112

> <r_i_glide_erotb>
0.491776

> <r_i_glide_esite>
-0.106743

> <r_i_glide_emodel>
-47.8445

> <r_i_glide_energy>
-38.0485

> <r_i_glide_einternal>
0.822569

> <i_i_glide_confnum>
43

> <i_i_glide_posenum>
11

> <r_i_glide_eff_state_penalty>
-0

> <r_i_glide_rmsd>
0.098629

> <s_glide_core_constrain_type>
snapped_core_restrain
$$$$