lig_26
                    3D
 Schrodinger Suite 2021-1.
 49 53  0  0  1  0            999 V2000
   -1.9736   14.1957   -8.1397 H   0  0  0  0  0  0
   -1.4912   13.4845   -7.4838 C   0  0  0  0  0  0
   -0.2813   13.7439   -7.0004 N   0  0  0  0  0  0
    0.0213   12.6738   -6.2260 N   0  0  0  0  0  0
    1.2778   12.6327   -5.5102 C   0  0  0  0  0  0
    1.2575   11.8394   -4.7625 H   0  0  0  0  0  0
    1.4536   13.5828   -5.0067 H   0  0  0  0  0  0
    2.0914   12.4394   -6.2068 H   0  0  0  0  0  0
   -0.9860   11.7332   -6.2273 C   0  0  0  0  0  0
   -0.9223   10.8187   -5.6576 H   0  0  0  0  0  0
   -1.9814   12.2407   -7.0039 C   0  0  0  0  0  0
   -3.2980   11.6440   -7.2539 C   0  0  0  0  0  0
   -4.4730   12.3356   -6.8932 C   0  0  0  0  0  0
   -4.4042   13.3211   -6.4516 H   0  0  0  0  0  0
   -5.7391   11.7527   -7.0918 C   0  0  0  0  0  0
   -6.6240   12.3066   -6.8153 H   0  0  0  0  0  0
   -5.8462   10.4739   -7.6786 C   0  0  0  0  0  0
   -7.2097    9.8501   -7.9175 C   0  0  0  0  0  0
   -7.2547    8.9151   -7.3627 H   0  0  0  0  0  0
   -7.9725   10.4788   -7.4610 H   0  0  0  0  0  0
   -7.5215    9.6470   -9.3747 C   0  0  0  0  0  0
   -8.1598    8.5774   -9.7922 N   0  0  0  0  0  0
   -8.3324    8.7336  -11.1311 N   0  0  0  0  0  0
   -8.8188    8.0200  -11.6669 H   0  0  0  0  0  0
   -7.7896    9.9060  -11.6281 C   0  0  0  0  0  0
   -7.2125   10.5135  -10.4809 C   0  0  0  0  0  0
   -6.5074   11.7212  -10.6708 C   0  0  0  0  0  0
   -6.0234   12.1726   -9.8176 H   0  0  0  0  0  0
   -6.3412   12.2921  -11.9531 C   0  0  0  0  0  0
   -5.4714   13.4146  -12.1062 N   0  0  0  0  0  0
   -4.2742   13.5850  -11.5044 C   0  0  0  0  0  0
   -3.7234   12.8127  -10.7205 O   0  0  0  0  0  0
   -3.6268   14.8958  -11.8980 C   0  0  0  0  0  0
   -3.6315   15.5653  -11.0389 H   0  0  0  0  0  0
   -2.5956   14.7558  -12.2323 H   0  0  0  0  0  0
   -4.5399   15.4185  -12.9984 C   0  0  0  0  0  0
   -4.8037   16.4544  -12.8011 H   0  0  0  0  0  0
   -4.0341   15.3745  -13.9617 H   0  0  0  0  0  0
   -5.7773   14.5125  -13.0071 C   0  0  0  0  0  0
   -5.9800   14.1494  -14.0142 H   0  0  0  0  0  0
   -6.6616   15.0299  -12.6297 H   0  0  0  0  0  0
   -6.9863   11.6976  -13.0642 C   0  0  0  0  0  0
   -6.8685   12.1123  -14.0526 H   0  0  0  0  0  0
   -7.7165   10.5033  -12.9021 C   0  0  0  0  0  0
   -8.1710   10.0330  -13.7582 H   0  0  0  0  0  0
   -4.6748    9.7861   -8.0597 C   0  0  0  0  0  0
   -4.7465    8.8163   -8.5314 H   0  0  0  0  0  0
   -3.4089   10.3624   -7.8323 C   0  0  0  0  0  0
   -2.5165    9.8218   -8.1177 H   0  0  0  0  0  0
  1  2  1  0  0  0
  2 11  1  0  0  0
  2  3  2  0  0  0
  3  4  1  0  0  0
  4  5  1  0  0  0
  4  9  1  0  0  0
  5  6  1  0  0  0
  5  7  1  0  0  0
  5  8  1  0  0  0
  9 10  1  0  0  0
  9 11  2  0  0  0
 11 12  1  0  0  0
 12 48  1  0  0  0
 12 13  2  0  0  0
 13 14  1  0  0  0
 13 15  1  0  0  0
 15 16  1  0  0  0
 15 17  2  0  0  0
 17 18  1  0  0  0
 17 46  1  0  0  0
 18 19  1  0  0  0
 18 20  1  0  0  0
 18 21  1  0  0  0
 21 26  1  0  0  0
 21 22  2  0  0  0
 22 23  1  0  0  0
 23 24  1  0  0  0
 23 25  1  0  0  0
 25 44  1  0  0  0
 25 26  2  0  0  0
 26 27  1  0  0  0
 27 28  1  0  0  0
 27 29  2  0  0  0
 29 30  1  0  0  0
 29 42  1  0  0  0
 30 39  1  0  0  0
 30 31  1  0  0  0
 31 32  2  0  0  0
 31 33  1  0  0  0
 33 34  1  0  0  0
 33 35  1  0  0  0
 33 36  1  0  0  0
 36 37  1  0  0  0
 36 38  1  0  0  0
 36 39  1  0  0  0
 39 40  1  0  0  0
 39 41  1  0  0  0
 42 43  1  0  0  0
 42 44  2  0  0  0
 44 45  1  0  0  0
 46 47  1  0  0  0
 46 48  2  0  0  0
 48 49  1  0  0  0
M  END
> <s_m_source_file>
ligprep_cdk8.smi

> <i_m_source_file_index>
14

> <i_lp_mmshare_version>
53161

> <i_f3d_flags>
0

> <s_epik_input>
W0NIM11uMW5bY0hdYyhbY0hdMSktYzJbY0hdW2NIXWMoW2NIXVtjSF0yKVtDSDJdYyhuW25IXTMpYyhjMzQpW2NIXWMoW2NIXVtjSF00KU41Qyg9TylbQ0gyXVtDSDJdW0NIMl01

> <s_epik_cmdline>
J2VwaWtfcHl0aG9uJywgJy1waHQnLCAnMC4wJywgJy1waCcsICc3LjQnLCAnLXRuJywgJzgnLCAnLW1hJywgJzUwMCcsICctaW1hZScsICc8aW5maWxlLm1hZT4nLCAnLW9tYWUnLCAnPG91dGZpbGUubWFlPic=

> <r_lp_tautomer_probability>
1

> <r_epik_Ionization_Penalty>
0.0001

> <r_epik_Ionization_Penalty_Charging>
0

> <r_epik_Ionization_Penalty_Neutral>
0.0001

> <r_epik_State_Penalty>
-0

> <r_epik_Charging_Adjusted_Penalty>
0

> <i_epik_Tot_Q>
0

> <i_epik_Tot_abs_Q>
0

> <s_lp_Force_Field>
S-OPLS

> <r_lp_Energy>
31.1939

> <b_lp_Chiralities_Consistent>
1

> <s_lp_Variant>
lig_26-1

> <s_i_glide_gridfile>
glide-grid_5HNB-CDK8

> <i_i_glide_lignum>
14

> <i_i_glide_rotatable_bonds>
4

> <r_i_docking_score>
-9.65648

> <r_i_glide_ligand_efficiency>
-0.344874

> <r_i_glide_ligand_efficiency_sa>
-1.04724

> <r_i_glide_ligand_efficiency_ln>
-2.229

> <r_i_glide_gscore>
-9.65648

> <r_i_glide_lipo>
-3.97053

> <r_i_glide_hbond>
-0.563474

> <r_i_glide_metal>
-0

> <r_i_glide_rewards>
-2.72352

> <r_i_glide_evdw>
-48.5596

> <r_i_glide_ecoul>
-2.41825

> <r_i_glide_erotb>
0.391759

> <r_i_glide_esite>
0

> <r_i_glide_emodel>
-76.6596

> <r_i_glide_energy>
-50.9778

> <r_i_glide_einternal>
4.18039

> <i_i_glide_confnum>
7

> <i_i_glide_posenum>
15

> <r_i_glide_eff_state_penalty>
-0

> <r_i_glide_rmsd>
0.10106

> <s_glide_core_constrain_type>
snapped_core_restrain
$$$$