lig_124
                    3D
 Schrodinger Suite 2021-1.
 32 33  0  0  1  0            999 V2000
   17.8454   -1.3353   -9.7668 H   0  0  0  0  0  0
   18.8253   -1.0873  -10.1410 C   0  0  0  0  0  0
   19.5446   -2.0476  -10.8710 C   0  0  0  0  0  0
   18.9919   -3.2575  -11.1028 F   0  0  0  0  0  0
   20.8170   -1.7385  -11.3839 C   0  0  0  0  0  0
   21.3602   -2.4833  -11.9477 H   0  0  0  0  0  0
   21.3660   -0.4571  -11.1663 C   0  0  0  0  0  0
   22.5932   -0.1320  -11.6912 O   0  0  0  0  0  0
   23.7405   -0.3195  -10.9506 C   0  0  0  0  0  0
   23.7114   -0.8164   -9.6251 C   0  0  0  0  0  0
   22.7816   -1.0715   -9.1399 H   0  0  0  0  0  0
   24.9045   -1.0001   -8.9035 C   0  0  0  0  0  0
   24.8718   -1.3703   -7.8918 H   0  0  0  0  0  0
   26.1378   -0.7165   -9.5120 C   0  0  0  0  0  0
   27.6451   -0.9461   -8.5877 S   0  0  0  0  0  0
   27.3835   -1.9003   -7.4977 O   0  0  0  0  0  0
   28.7341   -1.2342   -9.5282 O   0  0  0  0  0  0
   27.9626    0.7129   -7.8628 C   0  0  0  0  0  0
   29.2716    0.8743   -7.8020 F   0  0  0  0  0  0
   27.4345    0.7756   -6.6434 F   0  0  0  0  0  0
   27.4558    1.6664   -8.6398 F   0  0  0  0  0  0
   26.1851   -0.1845  -10.8126 C   0  0  0  0  0  0
   27.1361    0.0713  -11.2618 H   0  0  0  0  0  0
   24.9903    0.0191  -11.5316 C   0  0  0  0  0  0
   25.0874    0.6074  -12.9261 C   0  0  0  0  0  0
   24.1574    0.5266  -13.4820 H   0  0  0  0  0  0
   25.3958    1.9014  -12.8408 F   0  0  0  0  0  0
   26.0261   -0.0182  -13.6385 F   0  0  0  0  0  0
   20.6314    0.5054  -10.4417 C   0  0  0  0  0  0
   21.0422    1.4905  -10.2824 H   0  0  0  0  0  0
   19.3552    0.1983   -9.9358 C   0  0  0  0  0  0
   18.4274    1.3975   -9.1035 Cl  0  0  0  0  0  0
  1  2  1  0  0  0
  2 31  1  0  0  0
  2  3  2  0  0  0
  3  4  1  0  0  0
  3  5  1  0  0  0
  5  6  1  0  0  0
  5  7  2  0  0  0
  7  8  1  0  0  0
  7 29  1  0  0  0
  8  9  1  0  0  0
  9 24  1  0  0  0
  9 10  2  0  0  0
 10 11  1  0  0  0
 10 12  1  0  0  0
 12 13  1  0  0  0
 12 14  2  0  0  0
 14 15  1  0  0  0
 14 22  1  0  0  0
 15 16  2  0  0  0
 15 17  2  0  0  0
 15 18  1  0  0  0
 18 19  1  0  0  0
 18 20  1  0  0  0
 18 21  1  0  0  0
 22 23  1  0  0  0
 22 24  2  0  0  0
 24 25  1  0  0  0
 25 26  1  0  0  0
 25 27  1  0  0  0
 25 28  1  0  0  0
 29 30  1  0  0  0
 29 31  2  0  0  0
 31 32  1  0  0  0
M  END
> <s_m_source_file>
ligprep_hif2a.smi

> <i_m_source_file_index>
2

> <i_lp_mmshare_version>
53161

> <i_f3d_flags>
0

> <s_epik_input>
RmMxW2NIXWMoQ2wpW2NIXWMoW2NIXTEpT2MyW2NIXVtjSF1jKFMoPU8pKD1PKUMoRikoRilGKVtjSF1jMltDSF0oRilG

> <s_epik_cmdline>
J2VwaWtfcHl0aG9uJywgJy1waHQnLCAnMC4wJywgJy1waCcsICc3LjQnLCAnLXRuJywgJzgnLCAnLW1hJywgJzUwMCcsICctaW1hZScsICc8aW5maWxlLm1hZT4nLCAnLW9tYWUnLCAnPG91dGZpbGUubWFlPic=

> <r_lp_tautomer_probability>
1

> <r_epik_Ionization_Penalty>
0

> <r_epik_Ionization_Penalty_Charging>
0

> <r_epik_Ionization_Penalty_Neutral>
0

> <r_epik_State_Penalty>
-0

> <r_epik_Charging_Adjusted_Penalty>
0

> <i_epik_Tot_Q>
0

> <i_epik_Tot_abs_Q>
0

> <s_lp_Force_Field>
S-OPLS

> <r_lp_Energy>
24.9301

> <b_lp_Chiralities_Consistent>
1

> <s_lp_Variant>
lig_124-1

> <s_i_glide_gridfile>
glide-grid_5TBM-HIF2a

> <i_i_glide_lignum>
2

> <i_i_glide_rotatable_bonds>
5

> <r_i_docking_score>
-9.8337

> <r_i_glide_ligand_efficiency>
-0.393348

> <r_i_glide_ligand_efficiency_sa>
-1.15016

> <r_i_glide_ligand_efficiency_ln>
-2.33088

> <r_i_glide_gscore>
-9.8337

> <r_i_glide_lipo>
-4.4087

> <r_i_glide_hbond>
0

> <r_i_glide_metal>
-0

> <r_i_glide_rewards>
-3.15964

> <r_i_glide_evdw>
-47.925

> <r_i_glide_ecoul>
-3.12555

> <r_i_glide_erotb>
0.599715

> <r_i_glide_esite>
0

> <r_i_glide_emodel>
-79.65

> <r_i_glide_energy>
-51.0505

> <r_i_glide_einternal>
0.625777

> <i_i_glide_confnum>
5

> <i_i_glide_posenum>
27

> <r_i_glide_eff_state_penalty>
-0

> <r_i_glide_rmsd>
0.0680142

> <s_glide_core_constrain_type>
snapped_core_restrain
$$$$