lig_5
                    3D
 Schrodinger Suite 2021-1.
 52 54  0  0  1  0            999 V2000
   22.1071  -13.2634   25.0172 C   0  0  0  0  0  0
   20.9565  -12.6473   25.5430 C   0  0  0  0  0  0
   19.7018  -13.2690   25.3985 C   0  0  0  0  0  0
   19.5836  -14.4987   24.7162 C   0  0  0  0  0  0
   20.7445  -15.1170   24.2046 C   0  0  0  0  0  0
   22.0019  -14.4992   24.3516 C   0  0  0  0  0  0
   18.2183  -15.1498   24.5330 C   0  0  0  0  0  0
   17.6511  -15.1565   23.0886 C   0  0  2  0  0  0
   17.4123  -13.7313   22.5641 C   0  0  0  0  0  0
   16.4605  -13.1131   23.0418 O   0  0  0  0  0  0
   18.2090  -13.1959   21.6053 N   0  0  0  0  0  0
   19.4181  -13.8259   21.0709 C   0  0  0  0  0  0
   20.1177  -12.7755   20.2148 C   0  0  0  0  0  0
   19.0535  -11.7423   19.8906 C   0  0  0  0  0  0
   17.9909  -11.8658   20.9994 C   0  0  1  0  0  0
   16.5755  -11.6950   20.3971 C   0  0  0  0  0  0
   16.0756  -12.6020   19.7275 O   0  0  0  0  0  0
   15.9479  -10.5380   20.6495 N   0  0  0  0  0  0
   14.6010  -10.1872   20.2149 C   0  0  0  0  0  0
   13.5250  -10.4975   21.2394 C   0  0  0  0  0  0
   13.1393   -9.5104   22.1693 C   0  0  0  0  0  0
   12.1051   -9.7667   23.0862 C   0  0  0  0  0  0
   11.4444  -11.0082   23.0729 C   0  0  0  0  0  0
   11.8461  -12.0097   22.1698 C   0  0  0  0  0  0
   12.8825  -11.7540   21.2497 C   0  0  0  0  0  0
   16.3592  -15.8733   23.0532 N   0  3  0  0  0  0
   18.3253  -15.7148   22.4385 H   0  0  0  0  0  0
   18.1760  -11.1110   21.7701 H   0  0  0  0  0  0
   16.0316  -15.8918   22.0908 H   0  0  0  0  0  0
   16.4517  -16.8159   23.3988 H   0  0  0  0  0  0
   23.0714  -12.7894   25.1270 H   0  0  0  0  0  0
   21.0351  -11.7064   26.0704 H   0  0  0  0  0  0
   18.8304  -12.7953   25.8234 H   0  0  0  0  0  0
   20.6785  -16.0641   23.6915 H   0  0  0  0  0  0
   22.8901  -14.9724   23.9574 H   0  0  0  0  0  0
   18.3016  -16.1759   24.8950 H   0  0  0  0  0  0
   17.5056  -14.6586   25.1994 H   0  0  0  0  0  0
   20.0894  -14.1852   21.8459 H   0  0  0  0  0  0
   19.1309  -14.6749   20.4501 H   0  0  0  0  0  0
   20.9052  -12.3023   20.8032 H   0  0  0  0  0  0
   20.5878  -13.1977   19.3254 H   0  0  0  0  0  0
   19.4728  -10.7362   19.8487 H   0  0  0  0  0  0
   18.6370  -11.9648   18.9061 H   0  0  0  0  0  0
   16.4451   -9.8403   21.1961 H   0  0  0  0  0  0
   14.5811   -9.1142   20.0315 H   0  0  0  0  0  0
   14.3570  -10.6586   19.2604 H   0  0  0  0  0  0
   13.6392   -8.5549   22.1821 H   0  0  0  0  0  0
   11.8118   -9.0079   23.7952 H   0  0  0  0  0  0
   10.6397  -11.1984   23.7696 H   0  0  0  0  0  0
   11.3483  -12.9689   22.1818 H   0  0  0  0  0  0
   13.1754  -12.5213   20.5484 H   0  0  0  0  0  0
   15.6739  -15.3604   23.5959 H   0  0  0  0  0  0
  1  6  1  0  0  0
  1  2  2  0  0  0
  1 31  1  0  0  0
  2  3  1  0  0  0
  2 32  1  0  0  0
  3  4  2  0  0  0
  3 33  1  0  0  0
  4  5  1  0  0  0
  4  7  1  0  0  0
  5  6  2  0  0  0
  5 34  1  0  0  0
  6 35  1  0  0  0
  7  8  1  0  0  0
  7 36  1  0  0  0
  7 37  1  0  0  0
  8 27  1  0  0  0
  8  9  1  0  0  0
  8 26  1  0  0  0
  9 10  2  0  0  0
  9 11  1  0  0  0
 11 15  1  0  0  0
 11 12  1  0  0  0
 12 13  1  0  0  0
 12 38  1  0  0  0
 12 39  1  0  0  0
 13 14  1  0  0  0
 13 40  1  0  0  0
 13 41  1  0  0  0
 14 15  1  0  0  0
 14 42  1  0  0  0
 14 43  1  0  0  0
 15 28  1  0  0  0
 15 16  1  0  0  0
 16 17  2  0  0  0
 16 18  1  0  0  0
 18 19  1  0  0  0
 18 44  1  0  0  0
 19 20  1  0  0  0
 19 45  1  0  0  0
 19 46  1  0  0  0
 20 25  1  0  0  0
 20 21  2  0  0  0
 21 22  1  0  0  0
 21 47  1  0  0  0
 22 23  2  0  0  0
 22 48  1  0  0  0
 23 24  1  0  0  0
 23 49  1  0  0  0
 24 25  2  0  0  0
 24 50  1  0  0  0
 25 51  1  0  0  0
 26 29  1  0  0  0
 26 30  1  0  0  0
 26 52  1  0  0  0
M  CHG  1  26   1
M  END
> <s_m_source_file>
ligprep_thrombin.smi

> <i_m_source_file_index>
7

> <i_lp_mmshare_version>
53161

> <i_f3d_flags>
0

> <s_epik_input>
W2NIXTFbY0hdW2NIXVtjSF1bY0hdYzFbQ0gyXVtDQEBIXShbTkgyXSlDKD1PKU4yW0NIMl1bQ0gyXVtDSDJdW0NASF0yQyg9TylbTkhdW0NIMl1jM1tjSF1bY0hdW2NIXVtjSF1bY0hdMw==

> <s_epik_cmdline>
J2VwaWtfcHl0aG9uJywgJy1waHQnLCAnMC4wJywgJy1waCcsICc3LjQnLCAnLXRuJywgJzgnLCAnLW1hJywgJzUwMCcsICctaW1hZScsICc8aW5maWxlLm1hZT4nLCAnLW9tYWUnLCAnPG91dGZpbGUubWFlPic=

> <r_epik_Ionization_Penalty>
0.3822

> <r_epik_Ionization_Penalty_Charging>
0.3822

> <r_epik_Ionization_Penalty_Neutral>
0

> <r_epik_State_Penalty>
0.3803

> <r_epik_Charging_Adjusted_Penalty>
0.762511

> <i_epik_Tot_Q>
1

> <i_epik_Tot_abs_Q>
1

> <s_lp_Force_Field>
S-OPLS

> <r_lp_Energy>
36.7426

> <b_lp_Chiralities_Consistent>
1

> <s_lp_Variant>
lig_5-1

> <s_i_glide_gridfile>
glide-grid_2ZFF-Thrombin

> <i_i_glide_lignum>
7

> <i_i_glide_rotatable_bonds>
8

> <r_i_docking_score>
-10.4942

> <r_i_glide_ligand_efficiency>
-0.403624

> <r_i_glide_ligand_efficiency_sa>
-1.19573

> <r_i_glide_ligand_efficiency_ln>
-2.46453

> <r_i_glide_gscore>
-10.8745

> <r_i_glide_lipo>
-4.67106

> <r_i_glide_hbond>
-0.864

> <r_i_glide_metal>
-0

> <r_i_glide_rewards>
-1.74488

> <r_i_glide_evdw>
-46.0902

> <r_i_glide_ecoul>
-16.5938

> <r_i_glide_erotb>
1.2291

> <r_i_glide_esite>
-0.0301031

> <r_i_glide_emodel>
-113.334

> <r_i_glide_energy>
-62.684

> <r_i_glide_einternal>
2.20796e-08

> <i_i_glide_confnum>
8

> <i_i_glide_posenum>
8

> <r_i_glide_eff_state_penalty>
0.3803

> <r_i_glide_rmsd>
0.0843701

> <s_glide_core_constrain_type>
snapped_core_restrain
$$$$