lig_33_L
                    3D
 Schrodinger Suite 2021-1.
 58 61  0  0  1  0            999 V2000
   11.3183   -4.6092   13.7585 H   0  0  0  0  0  0
   10.5246   -4.1881   14.3558 C   0  0  0  0  0  0
   10.0400   -3.0094   13.9106 N   0  0  0  0  0  0
    9.0698   -2.4176   14.6340 C   0  0  0  0  0  0
    8.6996   -1.4759   14.2562 H   0  0  0  0  0  0
    8.5496   -2.9666   15.8186 C   0  0  0  0  0  0
    7.7664   -2.4575   16.3616 H   0  0  0  0  0  0
    9.0715   -4.1907   16.2728 C   0  0  0  0  0  0
    8.6953   -4.6252   17.1877 H   0  0  0  0  0  0
   10.0865   -4.8325   15.5341 C   0  0  0  0  0  0
   10.6897   -6.0879   16.0141 C   0  0  0  0  0  0
   12.0917   -6.2158   16.0898 C   0  0  0  0  0  0
   12.7103   -5.3982   15.7559 H   0  0  0  0  0  0
   12.7124   -7.3615   16.6426 C   0  0  0  0  0  0
   14.2414   -7.4063   16.7961 C   0  0  2  0  0  0
   14.8427   -8.8066   17.0399 C   0  0  0  0  0  0
   14.7761   -9.7577   15.9968 C   0  0  0  0  0  0
   14.2704   -9.5065   15.0769 H   0  0  0  0  0  0
   15.4038  -11.0105   16.1117 C   0  0  0  0  0  0
   15.3254  -11.6923   15.2786 H   0  0  0  0  0  0
   16.1349  -11.3384   17.2753 C   0  0  0  0  0  0
   16.8202  -12.5261   17.4270 O   0  0  0  0  0  0
   17.1537  -13.2498   16.2504 C   0  0  0  0  0  0
   17.8925  -14.0092   16.5082 H   0  0  0  0  0  0
   16.2821  -13.7532   15.8262 H   0  0  0  0  0  0
   17.6038  -12.6091   15.4909 H   0  0  0  0  0  0
   16.2009  -10.4092   18.3380 C   0  0  0  0  0  0
   16.9449  -10.7776   19.4406 O   0  0  0  0  0  0
   17.4728   -9.7657   20.2941 C   0  0  0  0  0  0
   17.7049   -8.8601   19.7296 H   0  0  0  0  0  0
   18.7929  -10.3132   20.8550 C   0  0  0  0  0  0
   19.2674   -9.5911   21.5186 H   0  0  0  0  0  0
   19.4960  -10.5389   20.0508 H   0  0  0  0  0  0
   18.6281  -11.2292   21.4210 H   0  0  0  0  0  0
   16.4861   -9.4466   21.4256 C   0  0  0  0  0  0
   16.8931   -8.6981   22.1030 H   0  0  0  0  0  0
   15.5283   -9.0790   21.0629 H   0  0  0  0  0  0
   16.2791  -10.3399   22.0068 H   0  0  0  0  0  0
   15.5428   -9.1595   18.2164 C   0  0  0  0  0  0
   15.6064   -8.4490   19.0232 H   0  0  0  0  0  0
   14.6897   -6.3271   17.8116 C   0  0  0  0  0  0
   14.2761   -6.2388   18.9698 O   0  0  0  0  0  0
   15.5509   -5.5071   17.2164 N   0  0  0  0  0  0
   16.1426   -4.2831   17.7500 C   0  0  0  0  0  0
   15.7221   -3.4121   17.2454 H   0  0  0  0  0  0
   15.9554   -4.1791   18.8199 H   0  0  0  0  0  0
   17.2241   -4.2834   17.6023 H   0  0  0  0  0  0
   15.6488   -5.8967   15.9029 C   0  0  0  0  0  0
   16.4974   -5.2063   15.0706 N   0  0  0  0  0  0
   16.5180   -5.3838   14.0679 H   0  0  0  0  0  0
   14.8987   -6.8934   15.6023 N   0  0  0  0  0  0
   11.8951   -8.4227   17.0914 C   0  0  0  0  0  0
   12.3189   -9.3184   17.5210 H   0  0  0  0  0  0
   10.4965   -8.3272   16.9811 C   0  0  0  0  0  0
    9.8723   -9.1419   17.3180 H   0  0  0  0  0  0
    9.8982   -7.1660   16.4618 C   0  0  0  0  0  0
    8.8200   -7.1057   16.4202 H   0  0  0  0  0  0
   16.9868   -4.3465   15.2988 H   0  0  0  0  0  0
  1  2  1  0  0  0
  2 10  1  0  0  0
  2  3  2  0  0  0
  3  4  1  0  0  0
  4  5  1  0  0  0
  4  6  2  0  0  0
  6  7  1  0  0  0
  6  8  1  0  0  0
  8  9  1  0  0  0
  8 10  2  0  0  0
 10 11  1  0  0  0
 11 56  1  0  0  0
 11 12  2  0  0  0
 12 13  1  0  0  0
 12 14  1  0  0  0
 14 52  2  0  0  0
 14 15  1  0  0  0
 15 51  1  0  0  0
 15 41  1  0  0  0
 15 16  1  0  0  0
 16 39  1  0  0  0
 16 17  2  0  0  0
 17 18  1  0  0  0
 17 19  1  0  0  0
 19 20  1  0  0  0
 19 21  2  0  0  0
 21 22  1  0  0  0
 21 27  1  0  0  0
 22 23  1  0  0  0
 23 24  1  0  0  0
 23 25  1  0  0  0
 23 26  1  0  0  0
 27 28  1  0  0  0
 27 39  2  0  0  0
 28 29  1  0  0  0
 29 30  1  0  0  0
 29 31  1  0  0  0
 29 35  1  0  0  0
 31 32  1  0  0  0
 31 33  1  0  0  0
 31 34  1  0  0  0
 35 36  1  0  0  0
 35 37  1  0  0  0
 35 38  1  0  0  0
 39 40  1  0  0  0
 41 42  2  0  0  0
 41 43  1  0  0  0
 43 44  1  0  0  0
 43 48  1  0  0  0
 44 45  1  0  0  0
 44 46  1  0  0  0
 44 47  1  0  0  0
 48 49  1  0  0  0
 48 51  2  0  0  0
 49 50  1  0  0  0
 49 58  1  0  0  0
 52 53  1  0  0  0
 52 54  1  0  0  0
 54 55  1  0  0  0
 54 56  2  0  0  0
 56 57  1  0  0  0
M  END
> <s_m_source_file>
ligprep_bace_p2.smi

> <i_m_source_file_index>
6

> <i_lp_mmshare_version>
53161

> <i_f3d_flags>
0

> <s_epik_input>
W2NIXTFbY0hdW2NIXW5bY0hdYzEtYzJbY0hdYyhbY0hdW2NIXVtjSF0yKVtDQEBdMyhDKD1PKU4oW0NIM10pQyg9TjMpW05IMl0pYzRbY0hdW2NIXWMoT1tDSDNdKWMoW2NIXTQpT1tDSF0oW0NIM10pW0NIM10=

> <s_epik_cmdline>
J2VwaWtfcHl0aG9uJywgJy1waHQnLCAnMC4wJywgJy1waCcsICc3LjQnLCAnLXRuJywgJzgnLCAnLW1hJywgJzUwMCcsICctaW1hZScsICc8aW5maWxlLm1hZT4nLCAnLW9tYWUnLCAnPG91dGZpbGUubWFlPic=

> <r_lp_tautomer_probability>
1

> <r_epik_Ionization_Penalty>
0.779

> <r_epik_Ionization_Penalty_Charging>
0

> <r_epik_Ionization_Penalty_Neutral>
0.779

> <r_epik_State_Penalty>
-0

> <r_epik_Charging_Adjusted_Penalty>
0

> <i_epik_Tot_Q>
0

> <i_epik_Tot_abs_Q>
0

> <s_epik_Chemistry_Notes>
This compound has an imine and may undergo hydrolysis.

> <s_lp_Force_Field>
S-OPLS

> <r_lp_Energy>
57.8423

> <b_lp_Chiralities_Consistent>
1

> <s_lp_Variant>
lig_33_L-1

> <s_i_glide_gridfile>
glide-grid_3IN4-BACE_P2

> <i_i_glide_lignum>
6

> <i_i_glide_rotatable_bonds>
6

> <r_i_docking_score>
-6.75092

> <r_i_glide_ligand_efficiency>
-0.210966

> <r_i_glide_ligand_efficiency_sa>
-0.669776

> <r_i_glide_ligand_efficiency_ln>
-1.51172

> <r_i_glide_gscore>
-6.75092

> <r_i_glide_lipo>
-2.18012

> <r_i_glide_hbond>
-0.944052

> <r_i_glide_metal>
-0

> <r_i_glide_rewards>
-0.473871

> <r_i_glide_evdw>
-43.2151

> <r_i_glide_ecoul>
-9.99054

> <r_i_glide_erotb>
0.643666

> <r_i_glide_esite>
-0.137213

> <r_i_glide_emodel>
-70.6719

> <r_i_glide_energy>
-53.2056

> <r_i_glide_einternal>
6.12282

> <i_i_glide_confnum>
131

> <i_i_glide_posenum>
177

> <r_i_glide_eff_state_penalty>
-0

> <r_i_glide_rmsd>
0.103513

> <s_glide_core_constrain_type>
snapped_core_restrain
$$$$