lig_CHEMBL3265014
                    3D
 Schrodinger Suite 2021-1.
 52 55  0  0  1  0            999 V2000
    6.2914   -0.8094   17.2235 H   0  0  0  0  0  0
    5.6504   -0.5014   16.4165 C   0  0  0  0  0  0
    5.8938    0.4126   15.4294 C   0  0  0  0  0  0
    6.7442    1.0362   15.1968 H   0  0  0  0  0  0
    4.7310    0.5043   14.6918 N   0  0  0  0  0  0
    3.8229   -0.4202   15.2503 C   0  0  0  0  0  0
    4.3876   -1.0616   16.2714 N   0  0  0  0  0  0
    2.5265   -0.4805   14.6654 C   0  0  0  0  0  0
    1.6175   -1.3932   15.2271 N   0  0  0  0  0  0
    2.0402   -1.9584   15.9541 H   0  0  0  0  0  0
    0.2426   -1.6169   15.0411 C   0  0  0  0  0  0
   -0.3304   -2.6688   15.7850 C   0  0  0  0  0  0
    0.2788   -3.2625   16.4524 H   0  0  0  0  0  0
   -1.7034   -2.9543   15.6842 C   0  0  0  0  0  0
   -2.1273   -3.7577   16.2687 H   0  0  0  0  0  0
   -2.5243   -2.1978   14.8281 C   0  0  0  0  0  0
   -3.8610   -2.4909   14.7534 O   0  0  0  0  0  0
   -4.2071   -3.2463   13.6048 C   0  0  0  0  0  0
   -5.2793   -3.4430   13.6047 H   0  0  0  0  0  0
   -3.9633   -2.7189   12.6812 H   0  0  0  0  0  0
   -3.6907   -4.2068   13.6016 H   0  0  0  0  0  0
   -1.9766   -1.1346   14.0772 C   0  0  0  0  0  0
   -2.8365   -0.4129   13.2740 O   0  0  0  0  0  0
   -2.2825    0.5748   12.4240 C   0  0  0  0  0  0
   -3.0700    1.0022   11.8039 H   0  0  0  0  0  0
   -1.8416    1.3876   12.9981 H   0  0  0  0  0  0
   -1.5320    0.1549   11.7527 H   0  0  0  0  0  0
   -0.5924   -0.8519   14.1940 C   0  0  0  0  0  0
   -0.1798   -0.0312   13.6385 H   0  0  0  0  0  0
    2.1897    0.2903   13.6701 N   0  0  0  0  0  0
    3.1001    1.1990   13.1766 C   0  0  0  0  0  0
    2.6233    2.0923   12.1058 C   0  0  0  0  0  0
    3.5123    2.5226   11.1026 C   0  0  0  0  0  0
    4.5336    2.1718   11.0882 H   0  0  0  0  0  0
    3.1048    3.4327   10.1182 C   0  0  0  0  0  0
    3.8237    3.7610    9.3805 H   0  0  0  0  0  0
    1.7824    3.9189   10.0884 C   0  0  0  0  0  0
    1.4515    4.9474    9.0419 C   0  0  0  0  0  0
    2.2976    5.7358    8.6244 O   0  0  0  0  0  0
    0.2276    4.9077    8.5308 N   0  0  0  0  0  0
   -0.4430    4.2576    8.9191 H   0  0  0  0  0  0
   -0.0466    5.5683    7.8200 H   0  0  0  0  0  0
    0.8464    3.4693   11.0666 C   0  0  0  0  0  0
   -0.4738    3.8757   10.9927 O   0  0  0  0  0  0
   -1.1802    4.1659   12.1950 C   0  0  0  0  0  0
   -0.9710    5.1834   12.5090 H   0  0  0  0  0  0
   -2.2528    4.1115   12.0105 H   0  0  0  0  0  0
   -0.9622    3.5013   13.0260 H   0  0  0  0  0  0
    1.2910    2.5612   12.0631 C   0  0  0  0  0  0
    0.6110    2.1942   12.8145 H   0  0  0  0  0  0
    4.3834    1.3048   13.6574 C   0  0  0  0  0  0
    5.1195    2.0215   13.3091 H   0  0  0  0  0  0
  1  2  1  0  0  0
  2  7  1  0  0  0
  2  3  2  0  0  0
  3  4  1  0  0  0
  3  5  1  0  0  0
  5 51  1  0  0  0
  5  6  1  0  0  0
  6  7  2  0  0  0
  6  8  1  0  0  0
  8  9  1  0  0  0
  8 30  2  0  0  0
  9 10  1  0  0  0
  9 11  1  0  0  0
 11 28  1  0  0  0
 11 12  2  0  0  0
 12 13  1  0  0  0
 12 14  1  0  0  0
 14 15  1  0  0  0
 14 16  2  0  0  0
 16 17  1  0  0  0
 16 22  1  0  0  0
 17 18  1  0  0  0
 18 19  1  0  0  0
 18 20  1  0  0  0
 18 21  1  0  0  0
 22 23  1  0  0  0
 22 28  2  0  0  0
 23 24  1  0  0  0
 24 25  1  0  0  0
 24 26  1  0  0  0
 24 27  1  0  0  0
 28 29  1  0  0  0
 30 31  1  0  0  0
 31 32  1  0  0  0
 31 51  2  0  0  0
 32 49  1  0  0  0
 32 33  2  0  0  0
 33 34  1  0  0  0
 33 35  1  0  0  0
 35 36  1  0  0  0
 35 37  2  0  0  0
 37 38  1  0  0  0
 37 43  1  0  0  0
 38 39  2  0  0  0
 38 40  1  0  0  0
 40 41  1  0  0  0
 40 42  1  0  0  0
 43 44  1  0  0  0
 43 49  2  0  0  0
 44 45  1  0  0  0
 45 46  1  0  0  0
 45 47  1  0  0  0
 45 48  1  0  0  0
 49 50  1  0  0  0
 51 52  1  0  0  0
M  END
> <s_m_source_file>
ligprep_syk.smi

> <i_m_source_file_index>
21

> <i_lp_mmshare_version>
53161

> <i_f3d_flags>
0

> <s_epik_input>
W0NIM11PYyhbY0hdMSljKE9bQ0gzXSlbY0hdW2NIXWMxW05IXWMoYyhuMjMpbltjSF1bY0hdMiluYyhbY0hdMyktYzRbY0hdW2NIXWMoQyg9TylbTkgyXSljKFtjSF00KU9bQ0gzXQ==

> <s_epik_cmdline>
J2VwaWtfcHl0aG9uJywgJy1waHQnLCAnMC4wJywgJy1waCcsICc3LjQnLCAnLXRuJywgJzgnLCAnLW1hJywgJzUwMCcsICctaW1hZScsICc8aW5maWxlLm1hZT4nLCAnLW9tYWUnLCAnPG91dGZpbGUubWFlPic=

> <r_lp_tautomer_probability>
1

> <r_epik_Ionization_Penalty>
0.0009

> <r_epik_Ionization_Penalty_Charging>
0.0009

> <r_epik_Ionization_Penalty_Neutral>
0

> <r_epik_State_Penalty>
-0

> <r_epik_Charging_Adjusted_Penalty>
0.000851558

> <i_epik_Tot_Q>
0

> <i_epik_Tot_abs_Q>
0

> <s_lp_Force_Field>
S-OPLS

> <r_lp_Energy>
46.0622

> <b_lp_Chiralities_Consistent>
1

> <s_lp_Variant>
lig_CHEMBL3265014-1

> <s_i_glide_gridfile>
glide-grid_4PV0-SYK

> <i_i_glide_lignum>
21

> <i_i_glide_rotatable_bonds>
7

> <r_i_docking_score>
-7.59672

> <r_i_glide_ligand_efficiency>
-0.245055

> <r_i_glide_ligand_efficiency_sa>
-0.769813

> <r_i_glide_ligand_efficiency_ln>
-1.71329

> <r_i_glide_gscore>
-7.59672

> <r_i_glide_lipo>
-2.64936

> <r_i_glide_hbond>
-0.331908

> <r_i_glide_metal>
-0

> <r_i_glide_rewards>
-2.12209

> <r_i_glide_evdw>
-45.9001

> <r_i_glide_ecoul>
-6.57023

> <r_i_glide_erotb>
0.787175

> <r_i_glide_esite>
0

> <r_i_glide_emodel>
-74.4437

> <r_i_glide_energy>
-52.4703

> <r_i_glide_einternal>
1.19566

> <i_i_glide_confnum>
7

> <i_i_glide_posenum>
1

> <r_i_glide_eff_state_penalty>
-0

> <r_i_glide_rmsd>
0.0938957

> <s_glide_core_constrain_type>
snapped_core_restrain
$$$$