lig_CHEMBL3265005
                    3D
 Schrodinger Suite 2021-1.
 48 51  0  0  1  0            999 V2000
    6.2770   -0.8069   17.2844 H   0  0  0  0  0  0
    5.6492   -0.5028   16.4645 C   0  0  0  0  0  0
    5.9066    0.4096   15.4854 C   0  0  0  0  0  0
    6.7608    1.0329   15.2647 H   0  0  0  0  0  0
    4.7521    0.5041   14.7377 N   0  0  0  0  0  0
    3.8306   -0.4169   15.2848 C   0  0  0  0  0  0
    4.3817   -1.0543   16.3183 N   0  0  0  0  0  0
    2.5399   -0.4585   14.6865 C   0  0  0  0  0  0
    1.6061   -1.3556   15.2369 N   0  0  0  0  0  0
    2.0038   -1.9101   15.9873 H   0  0  0  0  0  0
    0.2314   -1.5685   15.0287 C   0  0  0  0  0  0
   -0.3663   -2.6053   15.7777 C   0  0  0  0  0  0
    0.2257   -3.1994   16.4595 H   0  0  0  0  0  0
   -1.7429   -2.8698   15.6666 C   0  0  0  0  0  0
   -2.1864   -3.6544   16.2653 H   0  0  0  0  0  0
   -2.5439   -2.1082   14.7924 C   0  0  0  0  0  0
   -3.8856   -2.3760   14.7074 O   0  0  0  0  0  0
   -4.2363   -3.1300   13.5576 C   0  0  0  0  0  0
   -5.3127   -3.3021   13.5409 H   0  0  0  0  0  0
   -3.9657   -2.6138   12.6362 H   0  0  0  0  0  0
   -3.7439   -4.1028   13.5658 H   0  0  0  0  0  0
   -1.9735   -1.0604   14.0376 C   0  0  0  0  0  0
   -2.8174   -0.3261   13.2265 O   0  0  0  0  0  0
   -2.2330    0.6578   12.3889 C   0  0  0  0  0  0
   -2.9923    1.0922   11.7388 H   0  0  0  0  0  0
   -1.8049    1.4639   12.9867 H   0  0  0  0  0  0
   -1.4610    0.2269   11.7487 H   0  0  0  0  0  0
   -0.5833   -0.8040   14.1604 C   0  0  0  0  0  0
   -0.1456   -0.0012   13.5955 H   0  0  0  0  0  0
    2.2211    0.3282   13.6976 N   0  0  0  0  0  0
    3.1441    1.2325   13.2185 C   0  0  0  0  0  0
    2.6806    2.1276   12.1423 C   0  0  0  0  0  0
    3.5864    2.6038   11.1627 C   0  0  0  0  0  0
    4.6270    2.3153   11.1995 H   0  0  0  0  0  0
    3.1528    3.4329   10.1129 C   0  0  0  0  0  0
    3.8580    3.7771    9.3716 H   0  0  0  0  0  0
    1.7970    3.7993   10.0253 C   0  0  0  0  0  0
    1.4652    4.4207    9.2065 H   0  0  0  0  0  0
    0.8769    3.3622   11.0038 C   0  0  0  0  0  0
   -0.5737    3.7158   10.8679 C   0  0  0  0  0  0
   -1.1372    3.6977    9.7766 O   0  0  0  0  0  0
   -1.1966    4.0776   11.9889 N   0  0  0  0  0  0
   -0.6532    4.1924   12.8422 H   0  0  0  0  0  0
   -2.1681    4.3424   11.9486 H   0  0  0  0  0  0
    1.3264    2.5309   12.0557 C   0  0  0  0  0  0
    0.6194    2.1775   12.7929 H   0  0  0  0  0  0
    4.4251    1.3162   13.7049 C   0  0  0  0  0  0
    5.1755    2.0251   13.3720 H   0  0  0  0  0  0
  1  2  1  0  0  0
  2  7  1  0  0  0
  2  3  2  0  0  0
  3  4  1  0  0  0
  3  5  1  0  0  0
  5 47  1  0  0  0
  5  6  1  0  0  0
  6  7  2  0  0  0
  6  8  1  0  0  0
  8  9  1  0  0  0
  8 30  2  0  0  0
  9 10  1  0  0  0
  9 11  1  0  0  0
 11 28  1  0  0  0
 11 12  2  0  0  0
 12 13  1  0  0  0
 12 14  1  0  0  0
 14 15  1  0  0  0
 14 16  2  0  0  0
 16 17  1  0  0  0
 16 22  1  0  0  0
 17 18  1  0  0  0
 18 19  1  0  0  0
 18 20  1  0  0  0
 18 21  1  0  0  0
 22 23  1  0  0  0
 22 28  2  0  0  0
 23 24  1  0  0  0
 24 25  1  0  0  0
 24 26  1  0  0  0
 24 27  1  0  0  0
 28 29  1  0  0  0
 30 31  1  0  0  0
 31 32  1  0  0  0
 31 47  2  0  0  0
 32 45  1  0  0  0
 32 33  2  0  0  0
 33 34  1  0  0  0
 33 35  1  0  0  0
 35 36  1  0  0  0
 35 37  2  0  0  0
 37 38  1  0  0  0
 37 39  1  0  0  0
 39 40  1  0  0  0
 39 45  2  0  0  0
 40 41  2  0  0  0
 40 42  1  0  0  0
 42 43  1  0  0  0
 42 44  1  0  0  0
 45 46  1  0  0  0
 47 48  1  0  0  0
M  END
> <s_m_source_file>
ligprep_syk.smi

> <i_m_source_file_index>
13

> <i_lp_mmshare_version>
53161

> <i_f3d_flags>
0

> <s_epik_input>
W0NIM11PYyhbY0hdMSljKE9bQ0gzXSlbY0hdW2NIXWMxW05IXWMoYyhuMjMpbltjSF1bY0hdMiluYyhbY0hdMyktYzRbY0hdW2NIXVtjSF1jKFtjSF00KUMoPU8pW05IMl0=

> <s_epik_cmdline>
J2VwaWtfcHl0aG9uJywgJy1waHQnLCAnMC4wJywgJy1waCcsICc3LjQnLCAnLXRuJywgJzgnLCAnLW1hJywgJzUwMCcsICctaW1hZScsICc8aW5maWxlLm1hZT4nLCAnLW9tYWUnLCAnPG91dGZpbGUubWFlPic=

> <r_lp_tautomer_probability>
1

> <r_epik_Ionization_Penalty>
0.0009

> <r_epik_Ionization_Penalty_Charging>
0.0009

> <r_epik_Ionization_Penalty_Neutral>
0

> <r_epik_State_Penalty>
-0

> <r_epik_Charging_Adjusted_Penalty>
0.000851558

> <i_epik_Tot_Q>
0

> <i_epik_Tot_abs_Q>
0

> <s_lp_Force_Field>
S-OPLS

> <r_lp_Energy>
41.6209

> <b_lp_Chiralities_Consistent>
1

> <s_lp_Variant>
lig_CHEMBL3265005-1

> <s_i_glide_gridfile>
glide-grid_4PV0-SYK

> <i_i_glide_lignum>
13

> <i_i_glide_rotatable_bonds>
6

> <r_i_docking_score>
-8.55896

> <r_i_glide_ligand_efficiency>
-0.295136

> <r_i_glide_ligand_efficiency_sa>
-0.906753

> <r_i_glide_ligand_efficiency_ln>
-1.95978

> <r_i_glide_gscore>
-8.55896

> <r_i_glide_lipo>
-2.70758

> <r_i_glide_hbond>
-0.643811

> <r_i_glide_metal>
-0

> <r_i_glide_rewards>
-2.17125

> <r_i_glide_evdw>
-44.9274

> <r_i_glide_ecoul>
-10.082

> <r_i_glide_erotb>
0.771335

> <r_i_glide_esite>
-0.048978

> <r_i_glide_emodel>
-92.0657

> <r_i_glide_energy>
-55.0094

> <r_i_glide_einternal>
2.2763e-08

> <i_i_glide_confnum>
1

> <i_i_glide_posenum>
1

> <r_i_glide_eff_state_penalty>
-0

> <r_i_glide_rmsd>
0.0479799

> <s_glide_core_constrain_type>
snapped_core_restrain
$$$$