lig_30
                    3D
 Schrodinger Suite 2021-1.
 41 43  0  0  1  0            999 V2000
   67.8729  -36.3776   28.5813 H   0  0  0  0  0  0
   68.5977  -35.7048   28.1462 C   0  0  0  0  0  0
   69.9266  -35.7048   28.6125 C   0  0  0  0  0  0
   70.8611  -34.8180   28.0453 C   0  0  0  0  0  0
   70.4596  -33.9644   27.0020 C   0  0  0  0  0  0
   69.1290  -33.9529   26.4959 C   0  0  0  0  0  0
   68.2049  -34.8358   27.1062 C   0  0  0  0  0  0
   67.1830  -34.8469   26.7588 H   0  0  0  0  0  0
   69.0650  -32.9857   25.4259 C   0  0  0  0  0  0
   70.3214  -32.4271   25.3172 C   0  0  0  0  0  0
   71.1377  -33.0191   26.2661 N   0  0  0  0  0  0
   72.1059  -32.7456   26.3519 H   0  0  0  0  0  0
   70.9387  -31.3829   24.4579 C   0  0  0  0  0  0
   70.2920  -30.8589   23.5192 O   0  0  0  0  0  0
   72.1113  -31.0285   24.7089 O   0  5  0  0  0  0
   67.8595  -32.6292   24.6072 C   0  0  0  0  0  0
   67.1176  -33.4293   24.6406 H   0  0  0  0  0  0
   68.1458  -32.5398   23.5569 H   0  0  0  0  0  0
   67.2191  -31.3078   25.0580 C   0  0  0  0  0  0
   66.4975  -30.9905   24.3067 H   0  0  0  0  0  0
   67.9901  -30.5380   25.0925 H   0  0  0  0  0  0
   66.5286  -31.3773   26.4277 C   0  0  0  0  0  0
   66.2526  -30.3658   26.7293 H   0  0  0  0  0  0
   67.2073  -31.7812   27.1785 H   0  0  0  0  0  0
   65.3605  -32.1803   26.3260 O   0  0  0  0  0  0
   64.5018  -32.2078   27.4028 C   0  0  0  0  0  0
   63.2182  -32.7491   27.1796 C   0  0  0  0  0  0
   62.2898  -32.8579   28.2310 C   0  0  0  0  0  0
   62.6316  -32.4034   29.5185 C   0  0  0  0  0  0
   63.9008  -31.8394   29.7566 C   0  0  0  0  0  0
   64.8355  -31.7486   28.7037 C   0  0  0  0  0  0
   65.8072  -31.3271   28.9145 H   0  0  0  0  0  0
   64.2519  -31.3433   31.1437 C   0  0  0  0  0  0
   63.3468  -31.1428   31.7179 H   0  0  0  0  0  0
   64.8281  -30.4198   31.0921 H   0  0  0  0  0  0
   64.8419  -32.0934   31.6704 H   0  0  0  0  0  0
   61.9171  -32.4889   30.3230 H   0  0  0  0  0  0
   61.3160  -33.2886   28.0524 H   0  0  0  0  0  0
   62.9540  -33.1108   26.1974 H   0  0  0  0  0  0
   71.8834  -34.8022   28.3951 H   0  0  0  0  0  0
   70.2251  -36.3755   29.4067 H   0  0  0  0  0  0
  1  2  1  0  0  0
  2  7  1  0  0  0
  2  3  2  0  0  0
  3  4  1  0  0  0
  3 41  1  0  0  0
  4  5  2  0  0  0
  4 40  1  0  0  0
  5 11  1  0  0  0
  5  6  1  0  0  0
  6  7  2  0  0  0
  6  9  1  0  0  0
  7  8  1  0  0  0
  9 10  2  0  0  0
  9 16  1  0  0  0
 10 11  1  0  0  0
 10 13  1  0  0  0
 11 12  1  0  0  0
 13 14  2  0  0  0
 13 15  1  0  0  0
 16 17  1  0  0  0
 16 18  1  0  0  0
 16 19  1  0  0  0
 19 20  1  0  0  0
 19 21  1  0  0  0
 19 22  1  0  0  0
 22 23  1  0  0  0
 22 24  1  0  0  0
 22 25  1  0  0  0
 25 26  1  0  0  0
 26 31  1  0  0  0
 26 27  2  0  0  0
 27 28  1  0  0  0
 27 39  1  0  0  0
 28 29  2  0  0  0
 28 38  1  0  0  0
 29 30  1  0  0  0
 29 37  1  0  0  0
 30 31  2  0  0  0
 30 33  1  0  0  0
 31 32  1  0  0  0
 33 34  1  0  0  0
 33 35  1  0  0  0
 33 36  1  0  0  0
M  CHG  1  15  -1
M  END
> <s_m_source_file>
ligprep_mcl1.smi

> <i_m_source_file_index>
6

> <i_lp_mmshare_version>
53161

> <i_f3d_flags>
0

> <s_epik_input>
W2NIXTFbY0hdW2NIXVtjSF1jKGMxMiljKGMoW25IXTIpQyg9TylbT0hdKVtDSDJdW0NIMl1bQ0gyXU9jM1tjSF1bY0hdW2NIXWMoW2NIXTMpW0NIM10=

> <s_epik_cmdline>
J2VwaWtfcHl0aG9uJywgJy1waHQnLCAnMC4wJywgJy1waCcsICc3LjQnLCAnLXRuJywgJzgnLCAnLW1hJywgJzUwMCcsICctaW1hZScsICc8aW5maWxlLm1hZT4nLCAnLW9tYWUnLCAnPG91dGZpbGUubWFlPic=

> <r_lp_tautomer_probability>
1

> <r_epik_Ionization_Penalty>
0.0005

> <r_epik_Ionization_Penalty_Charging>
0.0005

> <r_epik_Ionization_Penalty_Neutral>
0

> <r_epik_State_Penalty>
-0

> <r_epik_Charging_Adjusted_Penalty>
0.00045214

> <i_epik_Tot_Q>
-1

> <i_epik_Tot_abs_Q>
1

> <s_lp_Force_Field>
S-OPLS

> <r_lp_Energy>
34.4174

> <b_lp_Chiralities_Consistent>
1

> <s_lp_Variant>
lig_30-1

> <s_i_glide_gridfile>
glide-grid_4HW3-MCL1

> <i_i_glide_lignum>
6

> <i_i_glide_rotatable_bonds>
6

> <r_i_docking_score>
-8.36005

> <r_i_glide_ligand_efficiency>
-0.363481

> <r_i_glide_ligand_efficiency_sa>
-1.03369

> <r_i_glide_ligand_efficiency_ln>
-2.02154

> <r_i_glide_gscore>
-8.36005

> <r_i_glide_lipo>
-4.8707

> <r_i_glide_hbond>
-0.247602

> <r_i_glide_metal>
-0

> <r_i_glide_rewards>
-1.98985

> <r_i_glide_evdw>
-38.523

> <r_i_glide_ecoul>
-3.07692

> <r_i_glide_erotb>
1.16745

> <r_i_glide_esite>
-0.0316656

> <r_i_glide_emodel>
-69.8487

> <r_i_glide_energy>
-41.6

> <r_i_glide_einternal>
0.835741

> <i_i_glide_confnum>
8

> <i_i_glide_posenum>
36

> <r_i_glide_eff_state_penalty>
-0

> <r_i_glide_rmsd>
0.0594065

> <s_glide_core_constrain_type>
snapped_core_restrain
$$$$