lig_CAT-13b
                    3D
 Schrodinger Suite 2021-1.
 41 43  0  0  1  0            999 V2000
   29.6496    9.2733   21.8017 H   0  0  0  0  0  0
   29.1600   10.1409   21.3882 C   0  0  0  0  0  0
   27.8353   10.0381   20.9287 C   0  0  0  0  0  0
   27.3110    9.1050   21.0445 H   0  0  0  0  0  0
   27.1955   11.1419   20.3293 C   0  0  0  0  0  0
   25.7996   11.0873   19.8742 C   0  0  0  0  0  0
   24.7450   10.9389   20.8003 C   0  0  0  0  0  0
   24.9965   10.8229   21.8428 H   0  0  0  0  0  0
   23.3842   10.9839   20.4004 C   0  0  0  0  0  0
   22.2569   10.8641   21.4529 C   0  0  2  0  0  0
   20.8213   10.8039   20.8552 C   0  0  0  0  0  0
   20.6354   11.7078   20.2746 H   0  0  0  0  0  0
   20.7659    9.9695   20.1541 H   0  0  0  0  0  0
   19.6591   10.6456   21.8554 C   0  0  0  0  0  0
   18.7078   10.5899   21.3274 H   0  0  0  0  0  0
   19.7592    9.7322   22.4418 H   0  0  0  0  0  0
   19.5995   11.4853   22.5483 H   0  0  0  0  0  0
   22.3768   11.9790   22.5082 C   0  0  0  0  0  0
   22.2577   13.1813   22.2648 O   0  0  0  0  0  0
   22.6060   11.4248   23.6941 N   0  0  0  0  0  0
   22.7692   12.0886   24.9857 C   0  0  0  0  0  0
   22.5482   13.1548   24.9195 H   0  0  0  0  0  0
   22.1044   11.6568   25.7356 H   0  0  0  0  0  0
   23.7943   11.9813   25.3367 H   0  0  0  0  0  0
   22.6563   10.0620   23.5096 C   0  0  0  0  0  0
   22.8902    9.2588   24.6018 N   0  0  0  0  0  0
   22.9937    8.2531   24.4993 H   0  0  0  0  0  0
   22.4802    9.6924   22.2911 N   0  0  0  0  0  0
   23.1028   11.1449   19.0210 C   0  0  0  0  0  0
   22.0907   11.1764   18.6487 H   0  0  0  0  0  0
   24.1447   11.2727   18.0844 C   0  0  0  0  0  0
   23.9157   11.4005   17.0357 H   0  0  0  0  0  0
   25.4845   11.2568   18.5119 C   0  0  0  0  0  0
   26.2756   11.3862   17.7884 H   0  0  0  0  0  0
   27.9055   12.3564   20.2144 C   0  0  0  0  0  0
   27.4238   13.2144   19.7678 H   0  0  0  0  0  0
   29.2198   12.4755   20.7018 C   0  0  0  0  0  0
   30.0403   13.9891   20.5965 Cl  0  0  0  0  0  0
   29.8521   11.3616   21.2850 C   0  0  0  0  0  0
   30.8680   11.4402   21.6462 H   0  0  0  0  0  0
   23.0020    9.5608   25.5616 H   0  0  0  0  0  0
  1  2  1  0  0  0
  2 39  1  0  0  0
  2  3  2  0  0  0
  3  4  1  0  0  0
  3  5  1  0  0  0
  5  6  1  0  0  0
  5 35  2  0  0  0
  6 33  1  0  0  0
  6  7  2  0  0  0
  7  8  1  0  0  0
  7  9  1  0  0  0
  9 29  2  0  0  0
  9 10  1  0  0  0
 10 28  1  0  0  0
 10 18  1  0  0  0
 10 11  1  0  0  0
 11 12  1  0  0  0
 11 13  1  0  0  0
 11 14  1  0  0  0
 14 15  1  0  0  0
 14 16  1  0  0  0
 14 17  1  0  0  0
 18 19  2  0  0  0
 18 20  1  0  0  0
 20 21  1  0  0  0
 20 25  1  0  0  0
 21 22  1  0  0  0
 21 23  1  0  0  0
 21 24  1  0  0  0
 25 26  1  0  0  0
 25 28  2  0  0  0
 26 27  1  0  0  0
 26 41  1  0  0  0
 29 30  1  0  0  0
 29 31  1  0  0  0
 31 32  1  0  0  0
 31 33  2  0  0  0
 33 34  1  0  0  0
 35 36  1  0  0  0
 35 37  1  0  0  0
 37 38  1  0  0  0
 37 39  2  0  0  0
 39 40  1  0  0  0
M  END
> <s_m_source_file>
ligprep_bace.smi

> <i_m_source_file_index>
2

> <i_lp_mmshare_version>
53161

> <i_f3d_flags>
0

> <s_epik_input>
W2NIXTFjKENsKVtjSF1bY0hdW2NIXWMxLWMyW2NIXWMoW2NIXVtjSF1bY0hdMilbQ0BdMyhbQ0gyXVtDSDNdKUMoPU8pTihbQ0gzXSlDKD1OMylbTkgyXQ==

> <s_epik_cmdline>
J2VwaWtfcHl0aG9uJywgJy1waHQnLCAnMC4wJywgJy1waCcsICc3LjQnLCAnLXRuJywgJzgnLCAnLW1hJywgJzUwMCcsICctaW1hZScsICc8aW5maWxlLm1hZT4nLCAnLW9tYWUnLCAnPG91dGZpbGUubWFlPic=

> <r_lp_tautomer_probability>
1

> <r_epik_Ionization_Penalty>
1.2659

> <r_epik_Ionization_Penalty_Charging>
0

> <r_epik_Ionization_Penalty_Neutral>
1.2659

> <r_epik_State_Penalty>
-0

> <r_epik_Charging_Adjusted_Penalty>
0

> <i_epik_Tot_Q>
0

> <i_epik_Tot_abs_Q>
0

> <s_epik_Chemistry_Notes>
This compound has an imine and may undergo hydrolysis.

> <s_lp_Force_Field>
S-OPLS

> <r_lp_Energy>
31.322

> <b_lp_Chiralities_Consistent>
1

> <s_lp_Variant>
lig_CAT-13b-1

> <s_i_glide_gridfile>
glide-grid_4DJW-BACE

> <i_i_glide_lignum>
2

> <i_i_glide_rotatable_bonds>
3

> <r_i_docking_score>
-5.44749

> <r_i_glide_ligand_efficiency>
-0.236847

> <r_i_glide_ligand_efficiency_sa>
-0.673562

> <r_i_glide_ligand_efficiency_ln>
-1.31725

> <r_i_glide_gscore>
-5.44749

> <r_i_glide_lipo>
-2.20148

> <r_i_glide_hbond>
-0.162284

> <r_i_glide_metal>
-0

> <r_i_glide_rewards>
-1.42018

> <r_i_glide_evdw>
-35.4346

> <r_i_glide_ecoul>
-1.98793

> <r_i_glide_erotb>
0.524106

> <r_i_glide_esite>
-0.117729

> <r_i_glide_emodel>
-46.36

> <r_i_glide_energy>
-37.4225

> <r_i_glide_einternal>
1.7123

> <i_i_glide_confnum>
33

> <i_i_glide_posenum>
23

> <r_i_glide_eff_state_penalty>
-0

> <r_i_glide_rmsd>
0.0828476

> <s_glide_core_constrain_type>
snapped_core_restrain
$$$$