lig_23472
                    3D
 Schrodinger Suite 2021-1.
 42 44  0  0  1  0            999 V2000
   44.4461    8.8863   -0.1111 H   0  0  0  0  0  0
   45.2165    9.5061    0.3172 C   0  0  0  0  0  0
   44.9647   10.8688    0.5737 C   0  0  0  0  0  0
   45.9600   11.6897    1.1482 C   0  0  0  0  0  0
   47.2166   11.1076    1.4324 C   0  0  0  0  0  0
   47.4703    9.7376    1.2162 C   0  0  0  0  0  0
   46.4549    8.9336    0.6572 C   0  0  0  0  0  0
   46.5928    7.8774    0.5042 H   0  0  0  0  0  0
   48.7147    9.2341    1.6232 N   0  0  0  0  0  0
   49.2610    9.8961    2.1559 H   0  0  0  0  0  0
   49.6517    7.8839    1.0552 S   0  0  0  0  0  0
   48.7605    7.0027    0.2891 O   0  0  0  0  0  0
   50.8520    8.4758    0.4396 O   0  0  0  0  0  0
   50.1046    7.0646    2.5815 C   0  0  0  0  0  0
   49.1202    6.3641    3.3098 C   0  0  0  0  0  0
   49.4706    5.7253    4.5166 C   0  0  0  0  0  0
   50.7983    5.7860    4.9853 C   0  0  0  0  0  0
   51.7763    6.4878    4.2528 C   0  0  0  0  0  0
   51.4320    7.1324    3.0490 C   0  0  0  0  0  0
   52.1819    7.6745    2.4909 H   0  0  0  0  0  0
   52.7898    6.5378    4.6162 H   0  0  0  0  0  0
   51.1380    5.1842    6.1489 F   0  0  0  0  0  0
   48.7214    5.1911    5.0819 H   0  0  0  0  0  0
   48.1031    6.3175    2.9465 H   0  0  0  0  0  0
   48.0149   11.7120    1.8392 H   0  0  0  0  0  0
   45.6913   13.0972    1.4797 C   0  0  0  0  0  0
   46.1641   13.8674    2.5108 C   0  0  0  0  0  0
   45.6933   15.2010    2.5467 C   0  0  0  0  0  0
   44.8191   15.4705    1.5281 C   0  0  0  0  0  0
   44.5862   14.0528    0.5087 S   0  0  0  0  0  0
   44.0768   16.7055    1.2029 C   0  0  0  0  0  0
   43.5127   16.8336    0.0978 O   0  0  0  0  0  0
   44.0409   17.6283    2.0551 O   0  5  0  0  0  0
   46.0231   16.0770    3.5159 O   0  0  0  0  0  0
   47.2444   16.7618    3.3493 C   0  0  0  0  0  0
   47.1358   17.5435    2.5914 H   0  0  0  0  0  0
   48.0429   16.0859    3.0394 H   0  0  0  0  0  0
   47.6242   17.3959    4.6889 C   0  0  0  0  0  0
   48.7235   17.9951    4.7273 O   0  0  0  0  0  0
   46.8235   17.2856    5.6550 O   0  5  0  0  0  0
   47.2963   13.2387    3.9030 Br  0  0  0  0  0  0
   43.9895   11.2706    0.3439 H   0  0  0  0  0  0
  1  2  1  0  0  0
  2  7  1  0  0  0
  2  3  2  0  0  0
  3  4  1  0  0  0
  3 42  1  0  0  0
  4  5  2  0  0  0
  4 26  1  0  0  0
  5  6  1  0  0  0
  5 25  1  0  0  0
  6  7  2  0  0  0
  6  9  1  0  0  0
  7  8  1  0  0  0
  9 10  1  0  0  0
  9 11  1  0  0  0
 11 12  2  0  0  0
 11 13  2  0  0  0
 11 14  1  0  0  0
 14 19  1  0  0  0
 14 15  2  0  0  0
 15 16  1  0  0  0
 15 24  1  0  0  0
 16 17  2  0  0  0
 16 23  1  0  0  0
 17 18  1  0  0  0
 17 22  1  0  0  0
 18 19  2  0  0  0
 18 21  1  0  0  0
 19 20  1  0  0  0
 26 30  1  0  0  0
 26 27  2  0  0  0
 27 28  1  0  0  0
 27 41  1  0  0  0
 28 29  2  0  0  0
 28 34  1  0  0  0
 29 30  1  0  0  0
 29 31  1  0  0  0
 31 32  2  0  0  0
 31 33  1  0  0  0
 34 35  1  0  0  0
 35 36  1  0  0  0
 35 37  1  0  0  0
 35 38  1  0  0  0
 38 39  2  0  0  0
 38 40  1  0  0  0
M  CHG  2  33  -1  40  -1
M  END
> <s_m_source_file>
ligprep_ptp1b.smi

> <i_m_source_file_index>
11

> <i_lp_mmshare_version>
53161

> <i_f3d_flags>
0

> <s_epik_input>
Tz1DKFtPSF0pW0NIMl1PYyhjKHMxKUMoPU8pW09IXSljKEJyKWMxLWMyW2NIXVtjSF1bY0hdYyhbY0hdMilbTkhdUyg9TykoPU8pYzNbY0hdW2NIXWMoRilbY0hdW2NIXTM=

> <s_epik_cmdline>
J2VwaWtfcHl0aG9uJywgJy1waHQnLCAnMC4wJywgJy1waCcsICc3LjQnLCAnLXRuJywgJzgnLCAnLW1hJywgJzUwMCcsICctaW1hZScsICc8aW5maWxlLm1hZT4nLCAnLW9tYWUnLCAnPG91dGZpbGUubWFlPic=

> <r_epik_Ionization_Penalty>
0.0488

> <r_epik_Ionization_Penalty_Charging>
0.0001

> <r_epik_Ionization_Penalty_Neutral>
0.0487

> <r_epik_State_Penalty>
0.0416

> <r_epik_Charging_Adjusted_Penalty>
0.0416423

> <i_epik_Tot_Q>
-2

> <i_epik_Tot_abs_Q>
2

> <s_lp_Force_Field>
S-OPLS

> <r_lp_Energy>
50.8479

> <b_lp_Chiralities_Consistent>
1

> <s_lp_Variant>
lig_23472-1

> <s_i_glide_gridfile>
glide-grid_2QBS-PTP1B

> <i_i_glide_lignum>
11

> <i_i_glide_rotatable_bonds>
8

> <r_i_docking_score>
-7.93316

> <r_i_glide_ligand_efficiency>
-0.255908

> <r_i_glide_ligand_efficiency_sa>
-0.803906

> <r_i_glide_ligand_efficiency_ln>
-1.78917

> <r_i_glide_gscore>
-7.97476

> <r_i_glide_lipo>
-1.64119

> <r_i_glide_hbond>
-1.28082

> <r_i_glide_metal>
-0

> <r_i_glide_rewards>
0.790774

> <r_i_glide_evdw>
-45.4192

> <r_i_glide_ecoul>
-32.2948

> <r_i_glide_erotb>
0.590428

> <r_i_glide_esite>
-0.162994

> <r_i_glide_emodel>
-138.688

> <r_i_glide_energy>
-77.7141

> <r_i_glide_einternal>
3.3436

> <i_i_glide_confnum>
3

> <i_i_glide_posenum>
7

> <r_i_glide_eff_state_penalty>
0.0416

> <r_i_glide_rmsd>
0.0885468

> <s_glide_core_constrain_type>
snapped_core_restrain
$$$$