lig_44
                    3D
 Schrodinger Suite 2021-1.
 46 50  0  0  1  0            999 V2000
   -0.8871   13.3054  -10.4199 H   0  0  0  0  0  0
   -1.6520   13.8485  -10.2927 O   0  0  0  0  0  0
   -2.3790   13.8288  -11.5058 C   0  0  0  0  0  0
   -1.6615   13.9230  -12.3182 H   0  0  0  0  0  0
   -3.3716   12.6810  -11.7491 C   0  0  0  0  0  0
   -3.3288   12.2707  -12.7597 H   0  0  0  0  0  0
   -3.3622   11.8954  -10.9917 H   0  0  0  0  0  0
   -4.4244   13.6774  -11.5897 N   0  0  0  0  0  0
   -5.6384   13.5819  -12.2758 C   0  0  0  0  0  0
   -6.0572   14.4735  -13.0139 O   0  0  0  0  0  0
   -6.4195   12.3178  -12.0693 C   0  0  0  0  0  0
   -6.5341   11.7639  -10.7736 C   0  0  0  0  0  0
   -6.0808   12.2654   -9.9329 H   0  0  0  0  0  0
   -7.2076   10.5430  -10.5473 C   0  0  0  0  0  0
   -7.7842    9.9051  -11.6749 C   0  0  0  0  0  0
   -7.7549   10.4793  -12.9576 C   0  0  0  0  0  0
   -8.2602   10.0006  -13.7795 H   0  0  0  0  0  0
   -7.0691   11.6937  -13.1552 C   0  0  0  0  0  0
   -7.0286   12.1376  -14.1418 H   0  0  0  0  0  0
   -8.3063    8.7361  -11.1547 N   0  0  0  0  0  0
   -8.7903    8.0128  -11.6755 H   0  0  0  0  0  0
   -8.1302    8.6142   -9.8155 N   0  0  0  0  0  0
   -7.5003    9.6960   -9.4232 C   0  0  0  0  0  0
   -7.2002    9.9213   -7.9694 C   0  0  0  0  0  0
   -7.9755   10.5575   -7.5425 H   0  0  0  0  0  0
   -7.2506    8.9822   -7.4140 H   0  0  0  0  0  0
   -5.8371   10.5437   -7.7209 C   0  0  0  0  0  0
   -5.7340   11.8124   -7.1071 C   0  0  0  0  0  0
   -6.6198   12.3493   -6.8172 H   0  0  0  0  0  0
   -4.4779   12.4070   -6.8600 C   0  0  0  0  0  0
   -3.3208   11.6781   -7.2436 C   0  0  0  0  0  0
   -3.4053   10.4097   -7.8427 C   0  0  0  0  0  0
   -2.5061    9.8763   -8.1156 H   0  0  0  0  0  0
   -4.6703    9.8460   -8.0941 C   0  0  0  0  0  0
   -4.7459    8.8733   -8.5596 H   0  0  0  0  0  0
   -2.2687   12.5044   -6.8815 N   0  0  0  0  0  0
   -0.8477   12.2657   -7.0420 C   0  0  0  0  0  0
   -0.4300   11.8617   -6.1201 H   0  0  0  0  0  0
   -0.6727   11.5460   -7.8386 H   0  0  0  0  0  0
   -0.3385   13.1949   -7.2990 H   0  0  0  0  0  0
   -2.6764   13.6684   -6.3061 N   0  0  0  0  0  0
   -3.9870   13.6250   -6.2868 C   0  0  0  0  0  0
   -4.5326   14.4586   -5.8661 H   0  0  0  0  0  0
   -3.5329   14.8247  -11.6958 C   0  0  0  0  0  0
   -3.6408   15.5479  -10.8878 H   0  0  0  0  0  0
   -3.5462   15.2935  -12.6819 H   0  0  0  0  0  0
  1  2  1  0  0  0
  2  3  1  0  0  0
  3 44  1  0  0  0
  3  4  1  0  0  0
  3  5  1  0  0  0
  5  6  1  0  0  0
  5  7  1  0  0  0
  5  8  1  0  0  0
  8  9  1  0  0  0
  8 44  1  0  0  0
  9 10  2  0  0  0
  9 11  1  0  0  0
 11 18  1  0  0  0
 11 12  2  0  0  0
 12 13  1  0  0  0
 12 14  1  0  0  0
 14 23  1  0  0  0
 14 15  2  0  0  0
 15 16  1  0  0  0
 15 20  1  0  0  0
 16 17  1  0  0  0
 16 18  2  0  0  0
 18 19  1  0  0  0
 20 21  1  0  0  0
 20 22  1  0  0  0
 22 23  2  0  0  0
 23 24  1  0  0  0
 24 25  1  0  0  0
 24 26  1  0  0  0
 24 27  1  0  0  0
 27 34  1  0  0  0
 27 28  2  0  0  0
 28 29  1  0  0  0
 28 30  1  0  0  0
 30 42  1  0  0  0
 30 31  2  0  0  0
 31 32  1  0  0  0
 31 36  1  0  0  0
 32 33  1  0  0  0
 32 34  2  0  0  0
 34 35  1  0  0  0
 36 37  1  0  0  0
 36 41  1  0  0  0
 37 38  1  0  0  0
 37 39  1  0  0  0
 37 40  1  0  0  0
 41 42  2  0  0  0
 42 43  1  0  0  0
 44 45  1  0  0  0
 44 46  1  0  0  0
M  END
> <s_m_source_file>
ligprep_cdk8.smi

> <i_m_source_file_index>
32

> <i_lp_mmshare_version>
53161

> <i_f3d_flags>
0

> <s_epik_input>
W09IXVtDSF0xW0NIMl1OKFtDSDJdMSlDKD1PKWMoW2NIXTIpW2NIXVtjSF1jKGMyMylbbkhdbmMzW0NIMl1jKFtjSF00KVtjSF1bY0hdYyhjNDUpbihbQ0gzXSluW2NIXTU=

> <s_epik_cmdline>
J2VwaWtfcHl0aG9uJywgJy1waHQnLCAnMC4wJywgJy1waCcsICc3LjQnLCAnLXRuJywgJzgnLCAnLW1hJywgJzUwMCcsICctaW1hZScsICc8aW5maWxlLm1hZT4nLCAnLW9tYWUnLCAnPG91dGZpbGUubWFlPic=

> <r_lp_tautomer_probability>
1

> <r_epik_Ionization_Penalty>
0

> <r_epik_Ionization_Penalty_Charging>
0

> <r_epik_Ionization_Penalty_Neutral>
0

> <r_epik_State_Penalty>
-0

> <r_epik_Charging_Adjusted_Penalty>
0

> <i_epik_Tot_Q>
0

> <i_epik_Tot_abs_Q>
0

> <s_lp_Force_Field>
S-OPLS

> <r_lp_Energy>
28.3299

> <b_lp_Chiralities_Consistent>
1

> <s_lp_Variant>
lig_44-1

> <s_i_glide_gridfile>
glide-grid_5HNB-CDK8

> <i_i_glide_lignum>
32

> <i_i_glide_rotatable_bonds>
5

> <r_i_docking_score>
-8.5141

> <r_i_glide_ligand_efficiency>
-0.315337

> <r_i_glide_ligand_efficiency_sa>
-0.946011

> <r_i_glide_ligand_efficiency_ln>
-1.98194

> <r_i_glide_gscore>
-8.5141

> <r_i_glide_lipo>
-3.95086

> <r_i_glide_hbond>
-0.55378

> <r_i_glide_metal>
-0

> <r_i_glide_rewards>
-1.06311

> <r_i_glide_evdw>
-47.3364

> <r_i_glide_ecoul>
-6.60613

> <r_i_glide_erotb>
0.4114

> <r_i_glide_esite>
0

> <r_i_glide_emodel>
-77.0654

> <r_i_glide_energy>
-53.9426

> <r_i_glide_einternal>
1.58914

> <i_i_glide_confnum>
10

> <i_i_glide_posenum>
1

> <r_i_glide_eff_state_penalty>
-0

> <r_i_glide_rmsd>
0.0811326

> <s_glide_core_constrain_type>
snapped_core_restrain
$$$$